# File generated by Flopy version 3.10.0.dev1 on 02/06/2025 at 18:51:00.
BEGIN options
  DENSEREF    1000.00000000
END options

BEGIN dimensions
  NRHOSPECIES  1
END dimensions

BEGIN packagedata
  1       0.70000000       0.00000000  trans  concentration
END packagedata

