# File generated by Flopy version 3.10.0.dev1 on 02/06/2025 at 18:51:00.
BEGIN options
END options

BEGIN packages
  DIS6  trans.dis  dis
  MST6  trans.mst  mst
  IC6  trans.ic  ic
  ADV6  trans.adv  adv
  OC6  trans.oc  oc
END packages

