# File generated by Flopy version 3.10.0.dev1 on 02/06/2025 at 18:51:00.
BEGIN options
END options

BEGIN griddata
  strt  LAYERED
    INTERNAL  FACTOR  1.0
          35.00000000      35.00000000      35.00000000      35.00000000      35.00000000      35.00000000      35.00000000      35.00000000      35.00000000      35.00000000      35.00000000      35.00000000      35.00000000      35.00000000      35.00000000      35.00000000      35.00000000      35.00000000      35.00000000      35.00000000      35.00000000      35.00000000      35.00000000      35.00000000      35.00000000      35.00000000      35.00000000      35.00000000      35.00000000      35.00000000      35.00000000      35.00000000      35.00000000      35.00000000      35.00000000      35.00000000      35.00000000      35.00000000      35.00000000      35.00000000      35.00000000      35.00000000      35.00000000      35.00000000      35.00000000      35.00000000      35.00000000      35.00000000      35.00000000      35.00000000      35.00000000      35.00000000      35.00000000      35.00000000      35.00000000      35.00000000      35.00000000      35.00000000      35.00000000      35.00000000      35.00000000      35.00000000      35.00000000      35.00000000      35.00000000      35.00000000      35.00000000      35.00000000      35.00000000      35.00000000      35.00000000      35.00000000      35.00000000      35.00000000      35.00000000      35.00000000      35.00000000      35.00000000      35.00000000      35.00000000      35.00000000      35.00000000      35.00000000      35.00000000      35.00000000      35.00000000      35.00000000      35.00000000      35.00000000      35.00000000      35.00000000      17.50000000      17.50000000      17.50000000      17.50000000      17.50000000      17.50000000      17.50000000      17.50000000      17.50000000      17.50000000      17.50000000      17.50000000      17.50000000      17.50000000      17.50000000      17.50000000      17.50000000      17.50000000      17.50000000      17.50000000      17.50000000      17.50000000      17.50000000      17.50000000      17.50000000      17.50000000      17.50000000      17.50000000      17.50000000      17.50000000      17.50000000      17.50000000      17.50000000      17.50000000      17.50000000      17.50000000      17.50000000      17.50000000      17.50000000      17.50000000       0.00000000       0.00000000       0.00000000       0.00000000       0.00000000       0.00000000       0.00000000       0.00000000       0.00000000       0.00000000       0.00000000       0.00000000       0.00000000       0.00000000       0.00000000       0.00000000       0.00000000       0.00000000       0.00000000       0.00000000       0.00000000       0.00000000       0.00000000       0.00000000       0.00000000       0.00000000       0.00000000       0.00000000       0.00000000       0.00000000       0.00000000       0.00000000       0.00000000       0.00000000       0.00000000       0.00000000       0.00000000       0.00000000       0.00000000       0.00000000       0.00000000       0.00000000       0.00000000       0.00000000       0.00000000       0.00000000       0.00000000       0.00000000       0.00000000       0.00000000       0.00000000       0.00000000       0.00000000       0.00000000       0.00000000       0.00000000       0.00000000       0.00000000       0.00000000       0.00000000       0.00000000       0.00000000       0.00000000       0.00000000       0.00000000       0.00000000       0.00000000       0.00000000       0.00000000       0.00000000       0.00000000       0.00000000       0.00000000       0.00000000       0.00000000       0.00000000       0.00000000       0.00000000       0.00000000       0.00000000       0.00000000       0.00000000       0.00000000       0.00000000       0.00000000       0.00000000       0.00000000       0.00000000       0.00000000       0.00000000       0.00000000       0.00000000       0.00000000       0.00000000       0.00000000       0.00000000       0.00000000       0.00000000       0.00000000       0.00000000       0.00000000       0.00000000       0.00000000       0.00000000       0.00000000       0.00000000       0.00000000       0.00000000       0.00000000       0.00000000       0.00000000       0.00000000       0.00000000       0.00000000       0.00000000       0.00000000       0.00000000       0.00000000       0.00000000       0.00000000       0.00000000       0.00000000       0.00000000       0.00000000       0.00000000       0.00000000       0.00000000       0.00000000       0.00000000       0.00000000       0.00000000       0.00000000       0.00000000       0.00000000       0.00000000       0.00000000       0.00000000       0.00000000       0.00000000       0.00000000       0.00000000       0.00000000       0.00000000       0.00000000       0.00000000       0.00000000       0.00000000       0.00000000       0.00000000       0.00000000       0.00000000       0.00000000       0.00000000       0.00000000       0.00000000       0.00000000       0.00000000       0.00000000       0.00000000       0.00000000       0.00000000       0.00000000       0.00000000       0.00000000       0.00000000       0.00000000       0.00000000       0.00000000       0.00000000
    INTERNAL  FACTOR  1.0
          35.00000000      35.00000000      35.00000000      35.00000000      35.00000000      35.00000000      35.00000000      35.00000000      35.00000000      35.00000000      35.00000000      35.00000000      35.00000000      35.00000000      35.00000000      35.00000000      35.00000000      35.00000000      35.00000000      35.00000000      35.00000000      35.00000000      35.00000000      35.00000000      35.00000000      35.00000000      35.00000000      35.00000000      35.00000000      35.00000000      35.00000000      35.00000000      35.00000000      35.00000000      35.00000000      35.00000000      35.00000000      35.00000000      35.00000000      35.00000000      35.00000000      35.00000000      35.00000000      35.00000000      35.00000000      35.00000000      35.00000000      35.00000000      35.00000000      35.00000000      35.00000000      35.00000000      35.00000000      35.00000000      35.00000000      35.00000000      35.00000000      35.00000000      35.00000000      35.00000000      35.00000000      35.00000000      35.00000000      35.00000000      35.00000000      35.00000000      35.00000000      35.00000000      35.00000000      35.00000000      35.00000000      35.00000000      35.00000000      35.00000000      35.00000000      35.00000000      35.00000000      35.00000000      35.00000000      35.00000000      35.00000000      35.00000000      35.00000000      35.00000000      35.00000000      35.00000000      35.00000000      35.00000000      35.00000000      35.00000000      35.00000000      35.00000000      17.50000000      17.50000000      17.50000000      17.50000000      17.50000000      17.50000000      17.50000000      17.50000000      17.50000000      17.50000000      17.50000000      17.50000000      17.50000000      17.50000000      17.50000000      17.50000000      17.50000000      17.50000000      17.50000000      17.50000000      17.50000000      17.50000000      17.50000000      17.50000000      17.50000000      17.50000000      17.50000000      17.50000000      17.50000000      17.50000000      17.50000000      17.50000000      17.50000000      17.50000000      17.50000000      17.50000000      17.50000000      17.50000000      17.50000000      17.50000000       0.00000000       0.00000000       0.00000000       0.00000000       0.00000000       0.00000000       0.00000000       0.00000000       0.00000000       0.00000000       0.00000000       0.00000000       0.00000000       0.00000000       0.00000000       0.00000000       0.00000000       0.00000000       0.00000000       0.00000000       0.00000000       0.00000000       0.00000000       0.00000000       0.00000000       0.00000000       0.00000000       0.00000000       0.00000000       0.00000000       0.00000000       0.00000000       0.00000000       0.00000000       0.00000000       0.00000000       0.00000000       0.00000000       0.00000000       0.00000000       0.00000000       0.00000000       0.00000000       0.00000000       0.00000000       0.00000000       0.00000000       0.00000000       0.00000000       0.00000000       0.00000000       0.00000000       0.00000000       0.00000000       0.00000000       0.00000000       0.00000000       0.00000000       0.00000000       0.00000000       0.00000000       0.00000000       0.00000000       0.00000000       0.00000000       0.00000000       0.00000000       0.00000000       0.00000000       0.00000000       0.00000000       0.00000000       0.00000000       0.00000000       0.00000000       0.00000000       0.00000000       0.00000000       0.00000000       0.00000000       0.00000000       0.00000000       0.00000000       0.00000000       0.00000000       0.00000000       0.00000000       0.00000000       0.00000000       0.00000000       0.00000000       0.00000000       0.00000000       0.00000000       0.00000000       0.00000000       0.00000000       0.00000000       0.00000000       0.00000000       0.00000000       0.00000000       0.00000000       0.00000000       0.00000000       0.00000000       0.00000000       0.00000000       0.00000000       0.00000000       0.00000000       0.00000000       0.00000000       0.00000000       0.00000000       0.00000000       0.00000000       0.00000000       0.00000000       0.00000000       0.00000000       0.00000000       0.00000000       0.00000000       0.00000000       0.00000000       0.00000000       0.00000000       0.00000000       0.00000000       0.00000000       0.00000000       0.00000000       0.00000000       0.00000000       0.00000000       0.00000000       0.00000000       0.00000000       0.00000000       0.00000000       0.00000000       0.00000000       0.00000000       0.00000000       0.00000000       0.00000000       0.00000000       0.00000000       0.00000000       0.00000000       0.00000000       0.00000000       0.00000000       0.00000000       0.00000000       0.00000000       0.00000000       0.00000000       0.00000000       0.00000000       0.00000000       0.00000000       0.00000000       0.00000000       0.00000000       0.00000000       0.00000000
    INTERNAL  FACTOR  1.0
          35.00000000      35.00000000      35.00000000      35.00000000      35.00000000      35.00000000      35.00000000      35.00000000      35.00000000      35.00000000      35.00000000      35.00000000      35.00000000      35.00000000      35.00000000      35.00000000      35.00000000      35.00000000      35.00000000      35.00000000      35.00000000      35.00000000      35.00000000      35.00000000      35.00000000      35.00000000      35.00000000      35.00000000      35.00000000      35.00000000      35.00000000      35.00000000      35.00000000      35.00000000      35.00000000      35.00000000      35.00000000      35.00000000      35.00000000      35.00000000      35.00000000      35.00000000      35.00000000      35.00000000      35.00000000      35.00000000      35.00000000      35.00000000      35.00000000      35.00000000      35.00000000      35.00000000      35.00000000      35.00000000      35.00000000      35.00000000      35.00000000      35.00000000      35.00000000      35.00000000      35.00000000      35.00000000      35.00000000      35.00000000      35.00000000      35.00000000      35.00000000      35.00000000      35.00000000      35.00000000      35.00000000      35.00000000      35.00000000      35.00000000      35.00000000      35.00000000      35.00000000      35.00000000      35.00000000      35.00000000      35.00000000      35.00000000      35.00000000      35.00000000      35.00000000      35.00000000      35.00000000      35.00000000      35.00000000      35.00000000      35.00000000      35.00000000      35.00000000      17.50000000      17.50000000      17.50000000      17.50000000      17.50000000      17.50000000      17.50000000      17.50000000      17.50000000      17.50000000      17.50000000      17.50000000      17.50000000      17.50000000      17.50000000      17.50000000      17.50000000      17.50000000      17.50000000      17.50000000      17.50000000      17.50000000      17.50000000      17.50000000      17.50000000      17.50000000      17.50000000      17.50000000      17.50000000      17.50000000      17.50000000      17.50000000      17.50000000      17.50000000      17.50000000      17.50000000      17.50000000      17.50000000      17.50000000      17.50000000       0.00000000       0.00000000       0.00000000       0.00000000       0.00000000       0.00000000       0.00000000       0.00000000       0.00000000       0.00000000       0.00000000       0.00000000       0.00000000       0.00000000       0.00000000       0.00000000       0.00000000       0.00000000       0.00000000       0.00000000       0.00000000       0.00000000       0.00000000       0.00000000       0.00000000       0.00000000       0.00000000       0.00000000       0.00000000       0.00000000       0.00000000       0.00000000       0.00000000       0.00000000       0.00000000       0.00000000       0.00000000       0.00000000       0.00000000       0.00000000       0.00000000       0.00000000       0.00000000       0.00000000       0.00000000       0.00000000       0.00000000       0.00000000       0.00000000       0.00000000       0.00000000       0.00000000       0.00000000       0.00000000       0.00000000       0.00000000       0.00000000       0.00000000       0.00000000       0.00000000       0.00000000       0.00000000       0.00000000       0.00000000       0.00000000       0.00000000       0.00000000       0.00000000       0.00000000       0.00000000       0.00000000       0.00000000       0.00000000       0.00000000       0.00000000       0.00000000       0.00000000       0.00000000       0.00000000       0.00000000       0.00000000       0.00000000       0.00000000       0.00000000       0.00000000       0.00000000       0.00000000       0.00000000       0.00000000       0.00000000       0.00000000       0.00000000       0.00000000       0.00000000       0.00000000       0.00000000       0.00000000       0.00000000       0.00000000       0.00000000       0.00000000       0.00000000       0.00000000       0.00000000       0.00000000       0.00000000       0.00000000       0.00000000       0.00000000       0.00000000       0.00000000       0.00000000       0.00000000       0.00000000       0.00000000       0.00000000       0.00000000       0.00000000       0.00000000       0.00000000       0.00000000       0.00000000       0.00000000       0.00000000       0.00000000       0.00000000       0.00000000       0.00000000       0.00000000       0.00000000       0.00000000       0.00000000       0.00000000       0.00000000       0.00000000       0.00000000       0.00000000       0.00000000       0.00000000       0.00000000       0.00000000       0.00000000       0.00000000       0.00000000       0.00000000       0.00000000       0.00000000       0.00000000       0.00000000       0.00000000       0.00000000       0.00000000       0.00000000       0.00000000       0.00000000       0.00000000       0.00000000       0.00000000       0.00000000       0.00000000       0.00000000       0.00000000       0.00000000       0.00000000       0.00000000       0.00000000       0.00000000
    INTERNAL  FACTOR  1.0
          35.00000000      35.00000000      35.00000000      35.00000000      35.00000000      35.00000000      35.00000000      35.00000000      35.00000000      35.00000000      35.00000000      35.00000000      35.00000000      35.00000000      35.00000000      35.00000000      35.00000000      35.00000000      35.00000000      35.00000000      35.00000000      35.00000000      35.00000000      35.00000000      35.00000000      35.00000000      35.00000000      35.00000000      35.00000000      35.00000000      35.00000000      35.00000000      35.00000000      35.00000000      35.00000000      35.00000000      35.00000000      35.00000000      35.00000000      35.00000000      35.00000000      35.00000000      35.00000000      35.00000000      35.00000000      35.00000000      35.00000000      35.00000000      35.00000000      35.00000000      35.00000000      35.00000000      35.00000000      35.00000000      35.00000000      35.00000000      35.00000000      35.00000000      35.00000000      35.00000000      35.00000000      35.00000000      35.00000000      35.00000000      35.00000000      35.00000000      35.00000000      35.00000000      35.00000000      35.00000000      35.00000000      35.00000000      35.00000000      35.00000000      35.00000000      35.00000000      35.00000000      35.00000000      35.00000000      35.00000000      35.00000000      35.00000000      35.00000000      35.00000000      35.00000000      35.00000000      35.00000000      35.00000000      35.00000000      35.00000000      35.00000000      35.00000000      35.00000000      35.00000000      17.50000000      17.50000000      17.50000000      17.50000000      17.50000000      17.50000000      17.50000000      17.50000000      17.50000000      17.50000000      17.50000000      17.50000000      17.50000000      17.50000000      17.50000000      17.50000000      17.50000000      17.50000000      17.50000000      17.50000000      17.50000000      17.50000000      17.50000000      17.50000000      17.50000000      17.50000000      17.50000000      17.50000000      17.50000000      17.50000000      17.50000000      17.50000000      17.50000000      17.50000000      17.50000000      17.50000000      17.50000000      17.50000000      17.50000000      17.50000000       0.00000000       0.00000000       0.00000000       0.00000000       0.00000000       0.00000000       0.00000000       0.00000000       0.00000000       0.00000000       0.00000000       0.00000000       0.00000000       0.00000000       0.00000000       0.00000000       0.00000000       0.00000000       0.00000000       0.00000000       0.00000000       0.00000000       0.00000000       0.00000000       0.00000000       0.00000000       0.00000000       0.00000000       0.00000000       0.00000000       0.00000000       0.00000000       0.00000000       0.00000000       0.00000000       0.00000000       0.00000000       0.00000000       0.00000000       0.00000000       0.00000000       0.00000000       0.00000000       0.00000000       0.00000000       0.00000000       0.00000000       0.00000000       0.00000000       0.00000000       0.00000000       0.00000000       0.00000000       0.00000000       0.00000000       0.00000000       0.00000000       0.00000000       0.00000000       0.00000000       0.00000000       0.00000000       0.00000000       0.00000000       0.00000000       0.00000000       0.00000000       0.00000000       0.00000000       0.00000000       0.00000000       0.00000000       0.00000000       0.00000000       0.00000000       0.00000000       0.00000000       0.00000000       0.00000000       0.00000000       0.00000000       0.00000000       0.00000000       0.00000000       0.00000000       0.00000000       0.00000000       0.00000000       0.00000000       0.00000000       0.00000000       0.00000000       0.00000000       0.00000000       0.00000000       0.00000000       0.00000000       0.00000000       0.00000000       0.00000000       0.00000000       0.00000000       0.00000000       0.00000000       0.00000000       0.00000000       0.00000000       0.00000000       0.00000000       0.00000000       0.00000000       0.00000000       0.00000000       0.00000000       0.00000000       0.00000000       0.00000000       0.00000000       0.00000000       0.00000000       0.00000000       0.00000000       0.00000000       0.00000000       0.00000000       0.00000000       0.00000000       0.00000000       0.00000000       0.00000000       0.00000000       0.00000000       0.00000000       0.00000000       0.00000000       0.00000000       0.00000000       0.00000000       0.00000000       0.00000000       0.00000000       0.00000000       0.00000000       0.00000000       0.00000000       0.00000000       0.00000000       0.00000000       0.00000000       0.00000000       0.00000000       0.00000000       0.00000000       0.00000000       0.00000000       0.00000000       0.00000000       0.00000000       0.00000000       0.00000000       0.00000000       0.00000000       0.00000000       0.00000000       0.00000000       0.00000000
    INTERNAL  FACTOR  1.0
          35.00000000      35.00000000      35.00000000      35.00000000      35.00000000      35.00000000      35.00000000      35.00000000      35.00000000      35.00000000      35.00000000      35.00000000      35.00000000      35.00000000      35.00000000      35.00000000      35.00000000      35.00000000      35.00000000      35.00000000      35.00000000      35.00000000      35.00000000      35.00000000      35.00000000      35.00000000      35.00000000      35.00000000      35.00000000      35.00000000      35.00000000      35.00000000      35.00000000      35.00000000      35.00000000      35.00000000      35.00000000      35.00000000      35.00000000      35.00000000      35.00000000      35.00000000      35.00000000      35.00000000      35.00000000      35.00000000      35.00000000      35.00000000      35.00000000      35.00000000      35.00000000      35.00000000      35.00000000      35.00000000      35.00000000      35.00000000      35.00000000      35.00000000      35.00000000      35.00000000      35.00000000      35.00000000      35.00000000      35.00000000      35.00000000      35.00000000      35.00000000      35.00000000      35.00000000      35.00000000      35.00000000      35.00000000      35.00000000      35.00000000      35.00000000      35.00000000      35.00000000      35.00000000      35.00000000      35.00000000      35.00000000      35.00000000      35.00000000      35.00000000      35.00000000      35.00000000      35.00000000      35.00000000      35.00000000      35.00000000      35.00000000      35.00000000      35.00000000      35.00000000      35.00000000      17.50000000      17.50000000      17.50000000      17.50000000      17.50000000      17.50000000      17.50000000      17.50000000      17.50000000      17.50000000      17.50000000      17.50000000      17.50000000      17.50000000      17.50000000      17.50000000      17.50000000      17.50000000      17.50000000      17.50000000      17.50000000      17.50000000      17.50000000      17.50000000      17.50000000      17.50000000      17.50000000      17.50000000      17.50000000      17.50000000      17.50000000      17.50000000      17.50000000      17.50000000      17.50000000      17.50000000      17.50000000      17.50000000      17.50000000      17.50000000       0.00000000       0.00000000       0.00000000       0.00000000       0.00000000       0.00000000       0.00000000       0.00000000       0.00000000       0.00000000       0.00000000       0.00000000       0.00000000       0.00000000       0.00000000       0.00000000       0.00000000       0.00000000       0.00000000       0.00000000       0.00000000       0.00000000       0.00000000       0.00000000       0.00000000       0.00000000       0.00000000       0.00000000       0.00000000       0.00000000       0.00000000       0.00000000       0.00000000       0.00000000       0.00000000       0.00000000       0.00000000       0.00000000       0.00000000       0.00000000       0.00000000       0.00000000       0.00000000       0.00000000       0.00000000       0.00000000       0.00000000       0.00000000       0.00000000       0.00000000       0.00000000       0.00000000       0.00000000       0.00000000       0.00000000       0.00000000       0.00000000       0.00000000       0.00000000       0.00000000       0.00000000       0.00000000       0.00000000       0.00000000       0.00000000       0.00000000       0.00000000       0.00000000       0.00000000       0.00000000       0.00000000       0.00000000       0.00000000       0.00000000       0.00000000       0.00000000       0.00000000       0.00000000       0.00000000       0.00000000       0.00000000       0.00000000       0.00000000       0.00000000       0.00000000       0.00000000       0.00000000       0.00000000       0.00000000       0.00000000       0.00000000       0.00000000       0.00000000       0.00000000       0.00000000       0.00000000       0.00000000       0.00000000       0.00000000       0.00000000       0.00000000       0.00000000       0.00000000       0.00000000       0.00000000       0.00000000       0.00000000       0.00000000       0.00000000       0.00000000       0.00000000       0.00000000       0.00000000       0.00000000       0.00000000       0.00000000       0.00000000       0.00000000       0.00000000       0.00000000       0.00000000       0.00000000       0.00000000       0.00000000       0.00000000       0.00000000       0.00000000       0.00000000       0.00000000       0.00000000       0.00000000       0.00000000       0.00000000       0.00000000       0.00000000       0.00000000       0.00000000       0.00000000       0.00000000       0.00000000       0.00000000       0.00000000       0.00000000       0.00000000       0.00000000       0.00000000       0.00000000       0.00000000       0.00000000       0.00000000       0.00000000       0.00000000       0.00000000       0.00000000       0.00000000       0.00000000       0.00000000       0.00000000       0.00000000       0.00000000       0.00000000       0.00000000       0.00000000       0.00000000       0.00000000
    INTERNAL  FACTOR  1.0