# File generated by Flopy version 3.10.0.dev1 on 02/06/2025 at 18:51:00.
BEGIN options
  PRINT_OPTION  all
END options

BEGIN nonlinear
  OUTER_DVCLOSE  1.00000000E-08
  OUTER_MAXIMUM  100
  UNDER_RELAXATION  none
END nonlinear

BEGIN linear
  INNER_MAXIMUM  300
  INNER_DVCLOSE  1.00000000E-08
  inner_rclose  1.00000000E-08
  LINEAR_ACCELERATION  bicgstab
  RELAXATION_FACTOR       0.97000000
  SCALING_METHOD  none
  REORDERING_METHOD  none
END linear

