# File generated by Flopy version 3.10.0.dev1 on 02/06/2025 at 18:49:53.
BEGIN options
  LENGTH_UNITS  meters
END options

BEGIN dimensions
  NLAY  1
  NROW  51
  NCOL  51
END dimensions

BEGIN griddata
  delr
    CONSTANT       1.00000000
  delc
    CONSTANT       1.00000000
  top
    CONSTANT       0.00000000
  botm
    CONSTANT     -10.00000000
END griddata

