# File generated by Flopy version 3.10.0.dev1 on 02/06/2025 at 18:50:21.
BEGIN options
END options

BEGIN dimensions
  MAXBOUND  10
END dimensions

BEGIN period  1
  2 1 15 0.00000000E+00 1.00000000E+04 -5
  2 2 15 0.00000000E+00 1.00000000E+04 -5
  2 3 15 0.00000000E+00 1.00000000E+04 -5
  2 4 15 0.00000000E+00 1.00000000E+04 -5
  2 5 15 0.00000000E+00 1.00000000E+04 -5
  2 6 15 0.00000000E+00 1.00000000E+04 -5
  2 7 15 0.00000000E+00 1.00000000E+04 -5
  2 8 15 0.00000000E+00 1.00000000E+04 -5
  2 9 15 0.00000000E+00 1.00000000E+04 -5
  2 10 15 0.00000000E+00 1.00000000E+04 -5
END period  1

