# File generated by Flopy version 3.10.0.dev1 on 02/06/2025 at 18:50:21.
BEGIN options
END options

BEGIN dimensions
  MAXBOUND  2
END dimensions

BEGIN period  2
  2 3 4 -3.50000000E+04
  2 8 4 -3.50000000E+04
END period  2

