# File generated by Flopy version 3.10.0.dev1 on 02/06/2025 at 18:49:57.
BEGIN options
  SAVE_FLOWS
  NEWTON
END options

BEGIN packages
  DIS6  gwf-lgr-parent.dis  dis
  IC6  gwf-lgr-parent.ic  ic
  NPF6  gwf-lgr-parent.npf  npf
  OC6  gwf-lgr-parent.oc  oc
  CHD6  gwf-lgr-parent.chd1.chd  chd-1
  CHD6  gwf-lgr-parent.chd2.chd  chd-2
  SFR6  gwf-lgr-parent.sfr  sfr-parent
END packages

