# File generated by Flopy version 3.10.0.dev1 on 02/06/2025 at 18:49:57.
BEGIN options
  ALTERNATIVE_CELL_AVERAGING  amt-lmk
END options

BEGIN griddata
  icelltype  LAYERED
    CONSTANT  1
    CONSTANT  1
    CONSTANT  1
    CONSTANT  0
    CONSTANT  0
    CONSTANT  0
  k
    CONSTANT       1.00000000
  k33
    CONSTANT       1.00000000
END griddata

