# File generated by Flopy version 3.10.0.dev1 on 02/06/2025 at 18:49:41.
BEGIN options
END options

BEGIN period  1
  PRINT  BUDGET  ALL
END period  1

