# File generated by Flopy version 3.10.0.dev1 on 02/06/2025 at 18:49:52.
BEGIN options
  BUDGET  FILEOUT  ex-gwe-prt-gwe.cbc
  TEMPERATURE  FILEOUT  ex-gwe-prt-gwe.ucn
  TEMPERATURE  PRINT_FORMAT  COLUMNS  10  WIDTH  15  DIGITS  6  GENERAL
END options

BEGIN period  1
  SAVE  TEMPERATURE  ALL
  SAVE  BUDGET  ALL
  PRINT  TEMPERATURE  LAST
  PRINT  BUDGET  LAST
END period  1

