# File generated by Flopy version 3.10.0.dev1 on 02/06/2025 at 18:49:52.
BEGIN options
END options

BEGIN packages
  DISV6  ex-gwe-prt-gwe.disv  disv
  IC6  ex-gwe-prt-gwe.ic  ic
  ADV6  ex-gwe-prt-gwe.adv  adv
  CND6  ex-gwe-prt-gwe.cnd  cnd-e
  EST6  ex-gwe-prt-gwe.est  est-e
  SSM6  ex-gwe-prt-gwe.ssm  ssm-e
  OC6  ex-gwe-prt-gwe.oc  oc
  FMI6  ex-gwe-prt-gwe.fmi  fmi
END packages

