# File generated by Flopy version 3.10.0.dev1 on 02/06/2025 at 18:49:52.
BEGIN options
END options

BEGIN timing
  TDIS6  ex-gwe-prt.tdis
END timing

BEGIN models
  gwe6  ex-gwe-prt-gwe.nam  ex-gwe-prt-gwe
END models

BEGIN exchanges
END exchanges

BEGIN solutiongroup  1
  ims6  ex-gwe-prt-gwe.ims  ex-gwe-prt-gwe
END solutiongroup  1

