# File generated by Flopy version 3.10.0.dev1 on 02/06/2025 at 18:50:15.
BEGIN options
END options

BEGIN continuous  FILEOUT  ex-gwf-rad-disu.obs.head.csv
  h_top  head  12
  h_mid  head  276
  h_bot  head  540
END continuous  FILEOUT  ex-gwf-rad-disu.obs.head.csv

