# File generated by Flopy version 3.10.0.dev1 on 02/06/2025 at 18:50:15.
BEGIN options
  SAVE_FLOWS
END options

BEGIN griddata
  iconvert
    CONSTANT  1
  ss
    CONSTANT  1.00000000E-05
  sy
    CONSTANT       0.10000000
END griddata

