# File generated by Flopy version 3.10.0.dev1 on 02/06/2025 at 18:50:46.
BEGIN options
  SAVE_FLOWS
END options

BEGIN packages
  DIS6  gwf-p07-mf6.dis  dis
  NPF6  gwf-p07-mf6.npf  npf
  IC6  gwf-p07-mf6.ic  ic
  CHD6  gwf-p07-mf6.chd  chd-1
  WEL6  gwf-p07-mf6.wel  wel-1
  OC6  gwf-p07-mf6.oc  oc
END packages

