# File generated by Flopy version 3.10.0.dev1 on 02/06/2025 at 18:50:46.
BEGIN options
END options

BEGIN griddata
  alh
    CONSTANT      10.00000000
  ath1
    CONSTANT       3.00000000
  atv
    CONSTANT       3.00000000
END griddata

