# File generated by Flopy version 3.10.0.dev1 on 02/06/2025 at 18:50:11.
BEGIN options
  BUDGET  FILEOUT  ex-gwf-maw-p03.cbc
  HEAD  FILEOUT  ex-gwf-maw-p03.hds
END options

BEGIN period  1
  SAVE  HEAD  LAST
  SAVE  BUDGET  LAST
  PRINT  BUDGET  LAST
END period  1

