# File generated by Flopy version 3.4.1 on 10/02/2023 at 11:09:55.
BEGIN options
END options

BEGIN dimensions
  MAXBOUND  1
END dimensions

BEGIN period  2
  1 5 5      -0.05000000
END period  2

BEGIN period  3
  1 5 5      -0.50000000
END period  3

BEGIN period  4
  1 5 5      -0.05000000
END period  4

