# File generated by Flopy version 3.4.1 on 10/02/2023 at 11:09:55.
BEGIN griddata
  strt
    CONSTANT       1.00000000
END griddata

