# File generated by Flopy version 3.10.0.dev1 on 02/06/2025 at 18:50:15.
BEGIN options
  BUDGET  FILEOUT  gwe-radial.cbc
  TEMPERATURE  FILEOUT  gwe-radial.ucn
  TEMPERATURE  PRINT_FORMAT  COLUMNS  10  WIDTH  15  DIGITS  6  GENERAL
END options

BEGIN period  1
  PRINT  TEMPERATURE  LAST
  PRINT  BUDGET  LAST
END period  1

BEGIN period  48
  SAVE  TEMPERATURE  LAST
  SAVE  BUDGET  LAST
END period  48

