# File generated by Flopy version 3.10.0.dev1 on 02/06/2025 at 18:49:52.
BEGIN options
END options

BEGIN packagedata
  GWFHEAD  FILEIN  ../gwf/ex-gwe-prt-gwf.hds
  GWFBUDGET  FILEIN  ../gwf/ex-gwe-prt-gwf.cbc
END packagedata

