# File generated by Flopy version 3.10.0.dev1 on 02/06/2025 at 18:49:52.
BEGIN options
  TRACK  FILEOUT  ex-gwe-prt-prt.trk
  TRACKCSV  FILEOUT  ex-gwe-prt-prt.trk.csv
END options

