# File generated by Flopy version 3.10.0.dev1 on 02/06/2025 at 18:49:52.
BEGIN options
END options

BEGIN timing
  TDIS6  ex-gwe-prt.tdis
END timing

BEGIN models
  prt6  ex-gwe-prt-prt.nam  ex-gwe-prt-prt
END models

BEGIN exchanges
END exchanges

BEGIN solutiongroup  1
  ems6  ex-gwe-prt-prt.ems  ex-gwe-prt-prt
END solutiongroup  1

