# File generated by Flopy version 3.10.0.dev1 on 02/06/2025 at 18:51:27.
BEGIN options
END options

BEGIN griddata
  porosity
    CONSTANT       0.10000000
  izone  LAYERED
    INTERNAL  FACTOR  1
      0  0  0  0  0  0  0  0  0  0  0  0  0  0  0  0  0  0  0  2
      0  0  0  0  0  0  0  0  0  0  0  0  0  0  0  0  0  0  0  2
      0  0  0  0  0  0  0  0  0  0  0  0  0  0  0  0  0  0  0  2
      0  0  0  0  0  0  0  0  0  0  0  0  0  0  0  0  0  0  0  2
      0  0  0  0  0  0  0  0  0  0  0  0  0  0  0  0  0  0  0  2
      0  0  0  0  0  0  0  0  0  0  0  0  0  0  0  0  0  0  0  2
      0  0  0  0  0  0  0  0  0  0  0  0  0  0  0  0  0  0  0  2
      0  0  0  0  0  0  0  0  0  0  0  0  0  0  0  0  0  0  0  2
      0  0  0  0  0  0  0  0  0  0  0  0  0  0  0  0  0  0  0  2
      0  0  0  0  0  0  0  0  0  0  0  0  0  0  0  0  0  0  0  2
      0  0  0  0  0  0  0  0  0  0  0  0  0  0  0  0  0  0  0  2
      0  0  0  0  0  0  0  0  0  0  0  0  0  0  0  0  0  0  0  2
      0  0  0  0  0  0  0  0  0  0  0  0  0  0  0  0  0  0  0  2
      0  0  0  0  0  0  0  0  0  0  0  0  0  0  0  0  0  0  0  2
      0  0  0  0  0  0  0  0  0  0  0  0  0  0  0  0  0  0  0  2
      0  0  0  0  0  0  0  0  0  0  0  0  0  0  0  0  0  0  0  2
      0  0  0  0  0  0  0  0  0  0  0  0  0  0  0  0  0  0  0  2
      0  0  0  0  0  0  0  0  0  0  0  0  0  0  0  0  0  0  0  2
      0  0  0  0  0  0  0  0  0  0  0  0  0  0  0  0  0  0  0  2
      0  0  0  0  0  0  0  0  0  0  0  0  0  0  0  0  0  0  0  2
      0  0  0  0  0  0  0  0  0  0  0  0  0  0  0  0  0  0  0  2
    INTERNAL  FACTOR  1
      0  0  0  0  0  0  0  0  0  0  0  0  0  0  0  0  0  0  0  0
      0  0  0  0  0  0  0  0  0  0  0  0  0  0  0  0  0  0  0  0
      0  0  0  0  0  0  0  0  0  0  0  0  0  0  0  0  0  0  0  0
      0  0  0  0  0  0  0  0  0  0  0  0  0  0  0  0  0  0  0  0
      0  0  0  0  0  0  0  0  0  0  0  0  0  0  0  0  0  0  0  0
      0  0  0  0  0  0  0  0  0  0  0  0  0  0  0  0  0  0  0  0
      0  0  0  0  0  0  0  0  0  0  0  0  0  0  0  0  0  0  0  0
      0  0  0  0  0  0  0  0  0  0  0  0  0  0  0  0  0  0  0  0
      0  0  0  0  0  0  0  0  0  0  0  0  0  0  0  0  0  0  0  0
      0  0  0  0  0  0  0  0  0  0  0  0  0  0  0  0  0  0  0  0
      0  0  0  0  0  0  0  0  0  0  0  0  0  0  0  0  0  0  0  0
      0  0  0  0  0  0  0  0  0  0  0  0  0  0  0  0  0  0  0  0
      0  0  0  0  0  0  0  0  0  0  0  0  0  0  0  0  0  0  0  0
      0  0  0  0  0  0  0  0  0  0  0  0  0  0  0  0  0  0  0  0
      0  0  0  0  0  0  0  0  0  0  0  0  0  0  0  0  0  0  0  0
      0  0  0  0  0  0  0  0  0  0  0  0  0  0  0  0  0  0  0  0
      0  0  0  0  0  0  0  0  0  0  0  0  0  0  0  0  0  0  0  0
      0  0  0  0  0  0  0  0  0  0  0  0  0  0  0  0  0  0  0  0
      0  0  0  0  0  0  0  0  0  0  0  0  0  0  0  0  0  0  0  0
      0  0  0  0  0  0  0  0  0  0  0  0  0  0  0  0  0  0  0  0
      0  0  0  0  0  0  0  0  0  0  0  0  0  0  0  0  0  0  0  0
    INTERNAL  FACTOR  1
      0  0  0  0  0  0  0  0  0  0  0  0  0  0  0  0  0  0  0  0
      0  0  0  0  0  0  0  0  0  0  0  0  0  0  0  0  0  0  0  0
      0  0  0  0  0  0  0  0  0  0  0  0  0  0  0  0  0  0  0  0
      0  0  0  0  0  0  0  0  0  0  0  0  0  0  0  0  0  0  0  0
      0  0  0  0  0  0  0  0  0  0  0  0  0  0  0  0  0  0  0  0
      0  0  0  0  0  0  0  0  0  0  0  0  0  0  0  0  0  0  0  0
      0  0  0  0  0  0  0  0  0  0  0  0  0  0  0  0  0  0  0  0
      0  0  0  0  0  0  0  0  0  0  0  0  0  0  0  0  0  0  0  0
      0  0  0  0  0  0  0  0  0  0  0  0  0  0  0  0  0  0  0  0
      0  0  0  0  0  0  0  0  0  0  0  0  0  0  0  0  0  0  0  0
      0  0  0  0  0  0  0  0  0  1  0  0  0  0  0  0  0  0  0  0
      0  0  0  0  0  0  0  0  0  0  0  0  0  0  0  0  0  0  0  0
      0  0  0  0  0  0  0  0  0  0  0  0  0  0  0  0  0  0  0  0
      0  0  0  0  0  0  0  0  0  0  0  0  0  0  0  0  0  0  0  0
      0  0  0  0  0  0  0  0  0  0  0  0  0  0  0  0  0  0  0  0
      0  0  0  0  0  0  0  0  0  0  0  0  0  0  0  0  0  0  0  0
      0  0  0  0  0  0  0  0  0  0  0  0  0  0  0  0  0  0  0  0
      0  0  0  0  0  0  0  0  0  0  0  0  0  0  0  0  0  0  0  0
      0  0  0  0  0  0  0  0  0  0  0  0  0  0  0  0  0  0  0  0
      0  0  0  0  0  0  0  0  0  0  0  0  0  0  0  0  0  0  0  0
      0  0  0  0  0  0  0  0  0  0  0  0  0  0  0  0  0  0  0  0
END griddata

