# File generated by Flopy version 3.10.0.dev1 on 02/06/2025 at 18:51:27.
BEGIN options
END options

BEGIN packages
  DIS6  mp7-p01-prt.dis  dis
  MIP6  mp7-p01-prt.mip  mip
  PRP6  mp7-p01-prt_1a.prp  prp1a
  PRP6  mp7-p01-prt_1b.prp  prp1b
  OC6  mp7-p01-prt.oc  oc
  FMI6  mp7-p01-prt.fmi  fmi
END packages

