# File generated by Flopy version 3.4.1 on 10/02/2023 at 10:59:01.
BEGIN options
  SAVE_FLOWS
END options

BEGIN packages
  DIS6  gwt_transportbase.dis  dis
  IC6  gwt_transportbase.ic  ic
  ADV6  gwt_transportbase.adv  adv
  DSP6  gwt_transportbase.dsp  dsp
  MST6  gwt_transportbase.mst  mst
  SSM6  gwt_transportbase.ssm  ssm
  CNC6  gwt_transportbase.cnc  cnc
  OC6  gwt_transportbase.oc  oc
END packages

