# File generated by Flopy version 3.4.1 on 10/02/2023 at 10:59:01.
BEGIN options
END options

BEGIN dimensions
  MAXBOUND  1
END dimensions

BEGIN period  1
  1 6 2       0.00000000
END period  1

