# File generated by Flopy version 3.4.1 on 10/02/2023 at 10:59:01.
BEGIN options
END options

BEGIN sources
  WEL-1  AUX  CONCENTRATION
  CHD-1  AUX  CONCENTRATION
END sources

