# File generated by Flopy version 3.4.1 on 10/02/2023 at 10:59:01.
BEGIN options
END options

BEGIN timing
  TDIS6  transportbase.tdis
END timing

BEGIN models
  gwf6  transportbase.nam  transportbase
  gwt6  gwt_transportbase.nam  gwt_transportbase
END models

BEGIN exchanges
  GWF6-GWT6  transportbase.gwfgwt  transportbase  gwt_transportbase
END exchanges

BEGIN solutiongroup  1
  ims6  transportbase.ims  transportbase
  ims6  gwt_transportbase.ims  gwt_transportbase
END solutiongroup  1

