# File generated by Flopy version 3.10.0.dev1 on 02/06/2025 at 18:50:50.
BEGIN options
  TIME_UNITS  days
END options

BEGIN dimensions
  NPER  2
END dimensions

BEGIN perioddata
     160.00000000  16       1.00000000
     680.00000000  84       1.00000000
END perioddata

