# File generated by Flopy version 3.10.0.dev1 on 02/06/2025 at 18:49:44.
BEGIN options
  BUDGET  FILEOUT  ex-gwf-csub-p04.cbc
  HEAD  FILEOUT  ex-gwf-csub-p04.hds
END options

BEGIN period  1
  SAVE  BUDGET  ALL
  SAVE  HEAD  ALL
  PRINT  BUDGET  ALL
END period  1

