# File generated by Flopy version 3.10.0.dev1 on 02/06/2025 at 18:49:44.
BEGIN options
END options

BEGIN dimensions
  MAXBOUND  2
END dimensions

BEGIN period  2
  2 9 10 -72000
  4 12 7 -72000
END period  2

BEGIN period  3
  2 9 10 0.00000000E+00
  4 12 7 0.00000000E+00
END period  3

