# File generated by Flopy version 3.10.0.dev1 on 02/06/2025 at 18:49:44.
BEGIN options
END options

BEGIN griddata
  strt
    CONSTANT     100.00000000
END griddata

