# File generated by Flopy version 3.10.0.dev1 on 02/06/2025 at 18:49:44.
BEGIN options
  SAVE_SPECIFIC_DISCHARGE
END options

BEGIN griddata
  icelltype  LAYERED
    CONSTANT  1
    CONSTANT  0
    CONSTANT  0
    CONSTANT  0
  k  LAYERED
    CONSTANT       4.00000000
    CONSTANT       4.00000000
    CONSTANT       0.01000000
    CONSTANT       4.00000000
END griddata

