# File generated by Flopy version 3.10.0.dev1 on 02/06/2025 at 18:49:44.
BEGIN options
END options

BEGIN timing
  TDIS6  ex-gwf-csub-p04.tdis
END timing

BEGIN models
  gwf6  ex-gwf-csub-p04.nam  ex-gwf-csub-p04
END models

BEGIN exchanges
END exchanges

BEGIN solutiongroup  1
  ims6  ex-gwf-csub-p04.ims  ex-gwf-csub-p04
END solutiongroup  1

