# File generated by Flopy version 3.10.0.dev1 on 02/06/2025 at 18:50:39.
BEGIN options
END options

BEGIN griddata
  porosity
    CONSTANT       0.37000000
END griddata

