# File generated by Flopy version 3.10.0.dev1 on 02/06/2025 at 18:50:23.
BEGIN options
  SAVE_FLOWS
END options

BEGIN packages
  DIS6  ex-gwf-whirl.dis  dis
  NPF6  ex-gwf-whirl.npf  npf
  IC6  ex-gwf-whirl.ic  ic
  WEL6  ex-gwf-whirl.wel  wel
  OC6  ex-gwf-whirl.oc  oc
END packages

