# Name file for MODPATH 7, generated by Flopy version 3.10.0.dev1.
MPBAS      mp7-p02-mp7.mpbas
GRBDISV    ../gwf/mp7-p02-gwf.disv.grb
TDIS       ../gwf/mp7-p02-gwf.tdis
HEAD       ../gwf/mp7-p02-gwf.hds
BUDGET     ../gwf/mp7-p02-gwf.cbb
