# MPSIM package for MODPATH 7 generated by Flopy 3.10.0.dev1
mp7-p02-mp7.mpnam
mp7-p02-mp7.mplst
4 2 1 1 0 0
mp7-p02-mp7.mpend
mp7-p02-mp7.mppth
mp7-p02-mp7.timeseries
0
1
0
2
1
500 1000.0
1
1
2
PG2A
1
0.0
EXTERNAL a.sloc
PG2B
1
0.0
EXTERNAL b.sloc
