# File generated by Flopy version 3.10.0.dev1 on 02/06/2025 at 18:49:48.
BEGIN options
  TIME_UNITS  days
END options

BEGIN dimensions
  NPER  50
END dimensions

BEGIN perioddata
       1.00000000  12       1.30000000
       1.00000000  1       1.00000000
       1.00000000  1       1.00000000
       1.00000000  1       1.00000000
       1.00000000  1       1.00000000
       1.00000000  1       1.00000000
       1.00000000  1       1.00000000
       1.00000000  1       1.00000000
       1.00000000  1       1.00000000
       1.00000000  1       1.00000000
       1.00000000  1       1.00000000
       1.00000000  1       1.00000000
       1.00000000  1       1.00000000
       1.00000000  1       1.00000000
       1.00000000  1       1.00000000
       1.00000000  1       1.00000000
       1.00000000  1       1.00000000
       1.00000000  1       1.00000000
       1.00000000  1       1.00000000
       1.00000000  1       1.00000000
       1.00000000  1       1.00000000
       1.00000000  1       1.00000000
       1.00000000  1       1.00000000
       1.00000000  1       1.00000000
       1.00000000  1       1.00000000
       1.00000000  1       1.00000000
       1.00000000  1       1.00000000
       1.00000000  1       1.00000000
       1.00000000  1       1.00000000
       1.00000000  1       1.00000000
       1.00000000  1       1.00000000
       1.00000000  1       1.00000000
       1.00000000  1       1.00000000
       1.00000000  1       1.00000000
       1.00000000  1       1.00000000
       1.00000000  1       1.00000000
       1.00000000  1       1.00000000
       1.00000000  1       1.00000000
       1.00000000  1       1.00000000
       1.00000000  1       1.00000000
       1.00000000  1       1.00000000
       1.00000000  1       1.00000000
       1.00000000  1       1.00000000
       1.00000000  1       1.00000000
       1.00000000  1       1.00000000
       1.00000000  1       1.00000000
       1.00000000  1       1.00000000
       1.00000000  1       1.00000000
       1.00000000  1       1.00000000
       1.00000000  1       1.00000000
END perioddata

