# File generated by Flopy version 3.10.0.dev1 on 02/06/2025 at 18:49:50.
BEGIN options
END options

BEGIN packagedata
  GWFHEAD  FILEIN  ../mf6gwf/ex-gwe-geotherm.hds
  GWFBUDGET  FILEIN  ../mf6gwf/ex-gwe-geotherm.cbc
END packagedata

