# File generated by Flopy version 3.10.0.dev1 on 02/06/2025 at 18:50:10.
BEGIN options
END options

BEGIN dimensions
  MAXBOUND  1
END dimensions

BEGIN period  1
  1 1 200 0.00000000E+00
END period  1

