# File generated by Flopy version 3.10.0.dev1 on 02/06/2025 at 18:51:03.
BEGIN options
END options

BEGIN dimensions
  MAXBOUND  3
END dimensions

BEGIN period  1
  1 43 80 1.92500000E+03
  1 44 80 1.92500000E+03
  1 45 80 1.92500000E+03
END period  1

