# File generated by Flopy version 3.4.1 on 01/04/2024 at 09:56:20.
BEGIN options
  SAVE_FLOWS
END options

BEGIN packages
  DIS6  gwt_transriver.dis  dis
  IC6  gwt_transriver.ic  ic
  ADV6  gwt_transriver.adv  adv
  DSP6  gwt_transriver.dsp  dsp
  MST6  gwt_transriver.mst  mst
  SSM6  gwt_transriver.ssm  ssm
  CNC6  gwt_transriver.cnc  cnc
  OC6  gwt_transriver.oc  oc
END packages

