# File generated by Flopy version 3.4.1 on 01/04/2024 at 09:56:20.
BEGIN options
  XT3D_OFF
END options

BEGIN griddata
  alh
    CONSTANT       1.00000000
  ath1
    CONSTANT       1.00000000
END griddata

