# File generated by Flopy version 3.4.1 on 01/04/2024 at 09:56:20.
BEGIN options
END options

BEGIN sources
  CHD-1  AUX  CONCENTRATION
  WEL-1  AUX  CONCENTRATION
END sources

