# File generated by Flopy version 3.4.1 on 01/04/2024 at 09:56:20.
BEGIN options
END options

BEGIN timing
  TDIS6  transriver.tdis
END timing

BEGIN models
  gwf6  transriver.nam  transriver
  gwt6  gwt_transriver.nam  gwt_transriver
END models

BEGIN exchanges
  GWF6-GWT6  transriver.gwfgwt  transriver  gwt_transriver
END exchanges

BEGIN solutiongroup  1
  ims6  transriver.ims  transriver
  ims6  gwt_transriver.ims  gwt_transriver
END solutiongroup  1

