# File generated by Flopy version 3.4.1 on 01/04/2024 at 09:56:20.
BEGIN options
  auxiliary  CONCENTRATION
END options

BEGIN dimensions
  MAXBOUND  2
END dimensions

BEGIN period  1
  1 1 1      10.00000000      10.00000000
  1 15 10      10.00000000      10.00000000
END period  1

