# File generated by Flopy version 3.4.1 on 01/04/2024 at 09:56:20.
BEGIN options
  SAVE_FLOWS
  SAVE_SPECIFIC_DISCHARGE
END options

BEGIN griddata
  icelltype
    CONSTANT  0
  k  LAYERED
    CONSTANT       0.50000000
    CONSTANT  6.00000000E-06
    CONSTANT       0.50000000
  k33  LAYERED
    CONSTANT       0.10000000
    CONSTANT       0.00200000
    CONSTANT       0.30000000
END griddata

