# File generated by Flopy version 3.4.1 on 01/04/2024 at 09:56:20.
BEGIN options
  SAVE_FLOWS
END options

BEGIN packages
  DIS6  transriver.dis  dis
  IC6  transriver.ic  ic
  NPF6  transriver.npf  npf
  STO6  transriver.sto  sto
  WEL6  transriver.wel  wel-1
  CHD6  transriver.chd  chd-1
  OC6  transriver.oc  oc
  RIV6  transriver.riv  riv-1
END packages

