# File generated by Flopy version 3.4.1 on 01/04/2024 at 09:56:20.
BEGIN options
  LENGTH_UNITS  meters
END options

BEGIN dimensions
  NLAY  3
  NROW  15
  NCOL  10
END dimensions

BEGIN griddata
  delr
    CONSTANT     100.00000000
  delc
    CONSTANT     100.00000000
  top
    CONSTANT      15.00000000
  botm  LAYERED
    CONSTANT      -5.00000000
    CONSTANT     -10.00000000
    CONSTANT     -15.00000000
END griddata

