# File generated by Flopy version 3.4.1 on 01/04/2024 at 09:56:20.
BEGIN griddata
  strt
    CONSTANT      10.00000000
END griddata

