# File generated by Flopy version 3.4.1 on 01/04/2024 at 09:56:20.
BEGIN options
  BUDGET  FILEOUT  transriver.bud
  HEAD  FILEOUT  transriver.hds
END options

BEGIN period  1
  SAVE  HEAD  ALL
  SAVE  BUDGET  ALL
END period  1

