# File generated by Flopy version 3.4.1 on 01/04/2024 at 09:56:20.
BEGIN options
END options

BEGIN dimensions
  MAXBOUND  12
END dimensions

BEGIN period  1
  1 2 1      13.00000000       0.05000000       7.00000000
  1 2 3      13.09090909       0.05000000       7.27272727
  1 3 2      13.18181818       0.05000000       7.54545455
  1 4 3      13.27272727       0.05000000       7.81818182
  1 5 4      13.36363636       0.05000000       8.09090909
  1 6 4      13.45454545       0.05000000       8.36363636
  1 5 5      13.54545455       0.05000000       8.63636364
  1 6 6      13.63636364       0.05000000       8.90909091
  1 7 7      13.72727273       0.05000000       9.18181818
  1 8 8      13.81818182       0.05000000       9.45454545
  1 9 8      13.90909091       0.05000000       9.72727273
  1 8 9      14.00000000       0.05000000      10.00000000
END period  1

