# File generated by Flopy version 3.10.0.dev1 on 02/06/2025 at 18:50:47.
BEGIN options
  READASARRAYS
  PRINT_FLOWS
END options

BEGIN period  1
  recharge
    CONSTANT  2.73972603E-04
END period  1

