# File generated by Flopy version 3.10.0.dev1 on 02/06/2025 at 18:50:47.
BEGIN options
END options

BEGIN griddata
  alh
    CONSTANT       0.50000000
  ath1
    CONSTANT       0.00500000
  atv
    CONSTANT       0.00500000
END griddata

