# File generated by Flopy version 3.10.0.dev1 on 02/06/2025 at 18:52:23.
BEGIN options
END options

BEGIN dimensions
  MAXBOUND  7
END dimensions

BEGIN period  1
  1 1 1.00000000E+00
  1 8 1.00000000E+00
  1 15 1.00000000E+00
  1 19 1.00000000E+00
  1 23 1.00000000E+00
  1 27 1.00000000E+00
  1 34 1.00000000E+00
END period  1

