# File generated by Flopy version 3.10.0.dev1 on 02/06/2025 at 18:50:22.
BEGIN options
  BUDGET  FILEOUT  inner.cbc
  HEAD  FILEOUT  inner.hds
END options

BEGIN period  1
  SAVE  HEAD  ALL
  SAVE  BUDGET  ALL
END period  1

