# File generated by Flopy version 3.10.0.dev1 on 02/06/2025 at 18:49:45.
BEGIN options
  PRINT_OPTION  summary
  COMPLEXITY  complex
END options

BEGIN nonlinear
  OUTER_DVCLOSE  1.00000000E-04
  OUTER_MAXIMUM  500
END nonlinear

BEGIN linear
  INNER_MAXIMUM  300
  INNER_DVCLOSE  1.00000000E-04
END linear

