# File generated by Flopy version 3.10.0.dev1 on 02/06/2025 at 18:50:53.
BEGIN options
END options

BEGIN linear
  INNER_DVCLOSE  1.00000000E-04
END linear

