# File generated by Flopy version 3.10.0.dev1 on 02/06/2025 at 18:50:53.
BEGIN options
  PRINT_FLOWS
  BUDGET  FILEOUT  flow.mvr.bud
END options

BEGIN dimensions
  MAXMVR  2
  MAXPACKAGES  1
END dimensions

BEGIN packages
  maw-1
END packages

BEGIN period  1
  MAW-1  2  MAW-1  3  factor       0.50000000
  MAW-1  2  MAW-1  4  factor       0.50000000
END period  1

