# File generated by Flopy version 3.10.0.dev1 on 02/06/2025 at 18:51:27.
BEGIN options
  BUDGET  FILEOUT  mp7-p01-gwf.cbb
  HEAD  FILEOUT  mp7-p01-gwf.hds
END options

BEGIN period  1
  SAVE  HEAD  ALL
  SAVE  BUDGET  ALL
END period  1

