# File generated by Flopy version 3.10.0.dev1 on 02/06/2025 at 18:51:33.
BEGIN options
END options

BEGIN timing
  TDIS6  mp7-p04-prt.tdis
END timing

BEGIN models
  prt6  mp7-p04-prt.nam  mp7-p04-prt
END models

BEGIN exchanges
END exchanges

BEGIN solutiongroup  1
  ems6  mp7-p04-prt.ems  mp7-p04-prt
END solutiongroup  1

