# File generated by Flopy version 3.10.0.dev1 on 02/06/2025 at 18:51:33.
BEGIN options
  BUDGET  FILEOUT  mp7-p04-prt.cbb
  TRACK  FILEOUT  mp7-p04-prt.trk
  TRACKCSV  FILEOUT  mp7-p04-prt.trk.csv
END options

BEGIN period  1
  SAVE  BUDGET  ALL
END period  1

