# File generated by Flopy version 3.10.0.dev1 on 02/06/2025 at 18:51:33.
BEGIN options
  EXIT_SOLVE_TOLERANCE  1.00000000E-05
  EXTEND_TRACKING
END options

BEGIN dimensions
  NRELEASEPTS  52
END dimensions

BEGIN packagedata
  1  1 1328   12500.00000000    7062.50000000      50.00000000
  2  1 1328   12500.00000000    7187.50000000      50.00000000
  3  1 1328   12500.00000000    7312.50000000      50.00000000
  4  1 1328   12500.00000000    7437.50000000      50.00000000
  5  1 1546   12500.00000000    6562.50000000      50.00000000
  6  1 1546   12500.00000000    6687.50000000      50.00000000
  7  1 1546   12500.00000000    6812.50000000      50.00000000
  8  1 1546   12500.00000000    6937.50000000      50.00000000
  9  1 1644   12500.00000000    6062.50000000      50.00000000
  10  1 1644   12500.00000000    6187.50000000      50.00000000
  11  1 1644   12500.00000000    6312.50000000      50.00000000
  12  1 1644   12500.00000000    6437.50000000      50.00000000
  13  1 1688   12500.00000000    5562.50000000      50.00000000
  14  1 1688   12500.00000000    5687.50000000      50.00000000
  15  1 1688   12500.00000000    5812.50000000      50.00000000
  16  1 1688   12500.00000000    5937.50000000      50.00000000
  17  1 1714   12500.00000000    5062.50000000      50.00000000
  18  1 1714   12500.00000000    5187.50000000      50.00000000
  19  1 1714   12500.00000000    5312.50000000      50.00000000
  20  1 1714   12500.00000000    5437.50000000      50.00000000
  21  1 862    4500.00000000    7820.31250000      50.00000000
  22  1 862    4500.00000000    7835.93750000      50.00000000
  23  1 862    4500.00000000    7851.56250000      50.00000000
  24  1 862    4500.00000000    7867.18750000      50.00000000
  25  1 862    4562.50000000    7820.31250000      50.00000000
  26  1 862    4562.50000000    7835.93750000      50.00000000
  27  1 862    4562.50000000    7851.56250000      50.00000000
  28  1 862    4562.50000000    7867.18750000      50.00000000
  29  1 862    4507.81250000    7812.50000000      50.00000000
  30  1 862    4523.43750000    7812.50000000      50.00000000
  31  1 862    4539.06250000    7812.50000000      50.00000000
  32  1 862    4554.68750000    7812.50000000      50.00000000
  33  1 862    4507.81250000    7875.00000000      50.00000000
  34  1 862    4523.43750000    7875.00000000      50.00000000
  35  1 862    4539.06250000    7875.00000000      50.00000000
  36  1 862    4554.68750000    7875.00000000      50.00000000
  37  1 892    4625.00000000    7632.81250000      50.00000000
  38  1 892    4625.00000000    7648.43750000      50.00000000
  39  1 892    4625.00000000    7664.06250000      50.00000000
  40  1 892    4625.00000000    7679.68750000      50.00000000
  41  1 892    4687.50000000    7632.81250000      50.00000000
  42  1 892    4687.50000000    7648.43750000      50.00000000
  43  1 892    4687.50000000    7664.06250000      50.00000000
  44  1 892    4687.50000000    7679.68750000      50.00000000
  45  1 892    4632.81250000    7625.00000000      50.00000000
  46  1 892    4648.43750000    7625.00000000      50.00000000
  47  1 892    4664.06250000    7625.00000000      50.00000000
  48  1 892    4679.68750000    7625.00000000      50.00000000
  49  1 892    4632.81250000    7687.50000000      50.00000000
  50  1 892    4648.43750000    7687.50000000      50.00000000
  51  1 892    4664.06250000    7687.50000000      50.00000000
  52  1 892    4679.68750000    7687.50000000      50.00000000
END packagedata

BEGIN period  1
  FIRST
END period  1

