# File generated by Flopy version 3.10.0.dev1 on 02/06/2025 at 18:51:33.
BEGIN options
END options

BEGIN packages
  DISV6  mp7-p04-prt.disv  disv
  MIP6  mp7-p04-prt.mip  mip
  PRP6  mp7-p04-prt_4.prp  prp
  OC6  mp7-p04-prt.oc  oc
  FMI6  mp7-p04-prt.fmi  fmi
END packages

