# File generated by Flopy version 3.10.0.dev1 on 02/06/2025 at 18:52:21.
BEGIN options
  PRINT_OPTION  all
END options

BEGIN linear
  INNER_MAXIMUM  100
END linear

