# File generated by Flopy version 3.10.0.dev1 on 02/06/2025 at 18:52:21.
BEGIN options
END options

BEGIN timing
  TDIS6  ex-gwf-toth.tdis
END timing

BEGIN models
  gwf6  toth.nam  toth
END models

BEGIN exchanges
END exchanges

BEGIN solutiongroup  1
  ims6  ex-gwf-toth.ims  toth
END solutiongroup  1

