# File generated by Flopy version 3.10.0.dev1 on 02/06/2025 at 18:52:21.
BEGIN options
  SAVE_FLOWS
END options

BEGIN packages
  DIS6  toth.dis  dis
  IC6  toth.ic  ic
  NPF6  toth.npf  npf
  CHD6  toth.chd  chd_0
  OC6  toth.oc  oc
END packages

