# File generated by Flopy version 3.10.0.dev1 on 02/06/2025 at 18:52:21.
BEGIN options
  BUDGET  FILEOUT  toth.bud
  HEAD  FILEOUT  toth.hds
END options

BEGIN period  1
  SAVE  HEAD  ALL
  SAVE  BUDGET  ALL
  PRINT  HEAD  ALL
  PRINT  BUDGET  ALL
END period  1

