# File generated by Flopy version 3.10.0.dev1 on 02/06/2025 at 18:50:52.
BEGIN options
  SAVE_FLOWS
END options

BEGIN packages
  DIS6  trans.dis  dis
  IC6  trans.ic  ic
  MST6  trans.mst  mst
  IST6  trans.ist  ist
  ADV6  trans.adv  adv
  DSP6  trans.dsp  dsp
  FMI6  trans.fmi  fmi
  CNC6  trans.cnc  cnc_0
  SSM6  trans.ssm  ssm
  OBS6  trans.obs  obs_0
END packages

