# File generated by Flopy version 3.4.1 on 10/02/2023 at 11:09:55.
BEGIN options
  BUDGET  FILEOUT  gwt_transportbase.cbc
  CONCENTRATION  FILEOUT  gwt_transportbase.ucn
  CONCENTRATION  PRINT_FORMAT  COLUMNS  10  WIDTH  15  DIGITS  6  GENERAL
END options

BEGIN period  1
  SAVE  CONCENTRATION  LAST
  SAVE  BUDGET  LAST
  PRINT  CONCENTRATION  LAST
  PRINT  BUDGET  LAST
END period  1

