# File generated by Flopy version 3.4.1 on 10/02/2023 at 11:09:55.
BEGIN options
  auxiliary  CONCENTRATION
END options

BEGIN dimensions
  MAXBOUND  2
END dimensions

BEGIN period  1
  1 1 1       1.00000000       0.00000000
  1 10 10       1.00000000       0.00000000
END period  1

