# File generated by Flopy version 3.4.1 on 10/02/2023 at 11:09:55.
BEGIN options
  SAVE_FLOWS
END options

BEGIN packages
  DIS6  transportbase.dis  dis
  IC6  transportbase.ic  ic
  NPF6  transportbase.npf  npf
  STO6  transportbase.sto  sto
  WEL6  transportbase.wel  wel-1
  CHD6  transportbase.chd  chd-1
  OC6  transportbase.oc  oc
END packages

