# File generated by Flopy version 3.4.1 on 10/02/2023 at 11:01:50.
BEGIN options
  SAVE_FLOWS
END options

BEGIN packages
  DIS6  flowbase.dis  dis
  IC6  flowbase.ic  ic
  NPF6  flowbase.npf  npf
  STO6  flowbase.sto  sto
  WEL6  flowbase.wel  wel_0
  CHD6  flowbase.chd  chd_0
  OC6  flowbase.oc  oc
END packages

