# File generated by Flopy version 3.10.0.dev1 on 02/06/2025 at 18:49:48.
BEGIN options
  BUDGET  FILEOUT  ex-gwe-geotherm.cbc
  HEAD  FILEOUT  ex-gwe-geotherm.hds
END options

BEGIN period  1
  SAVE  HEAD  LAST
  SAVE  BUDGET  LAST
END period  1

