# File generated by Flopy version 3.10.0.dev1 on 02/06/2025 at 18:49:41.
BEGIN options
  SAVE_FLOWS
END options

BEGIN packages
  DIS6  ex-gwe-barends.dis  dis
  NPF6  ex-gwe-barends.npf  npf-1
  IC6  ex-gwe-barends.ic  ic-1
  STO6  ex-gwe-barends.sto  sto
  WEL6  ex-gwe-barends.wel-left  wel-left
  WEL6  ex-gwe-barends.wel-right  wel-right
  OC6  ex-gwe-barends.oc  oc
END packages

