# File generated by Flopy version 3.10.0.dev1 on 02/06/2025 at 18:49:41.
BEGIN options
  SAVE_FLOWS
  
  SAVE_SPECIFIC_DISCHARGE
  SAVE_SATURATION
END options

BEGIN griddata
  icelltype
    CONSTANT  0
  k  LAYERED
    CONSTANT  1.00000000E-21
    CONSTANT  1.00000000E-21
    CONSTANT  1.00000000E-21
    CONSTANT  1.00000000E-21
    CONSTANT  1.00000000E-21
    CONSTANT  1.00000000E-21
    CONSTANT  1.00000000E-21
    CONSTANT  1.00000000E-21
    CONSTANT  1.00000000E-21
    CONSTANT  1.00000000E-21
    CONSTANT  1.00000000E-21
    CONSTANT  1.00000000E-21
    CONSTANT  1.00000000E-21
    CONSTANT  1.00000000E-21
    CONSTANT  1.00000000E-21
    CONSTANT  1.00000000E-21
    CONSTANT  1.00000000E-21
    CONSTANT  1.00000000E-21
    CONSTANT  1.00000000E-21
    CONSTANT  1.00000000E-21
    CONSTANT  1.00000000E-21
    CONSTANT  1.00000000E-21
    CONSTANT  1.00000000E-21
    CONSTANT  1.00000000E-21
    CONSTANT  1.00000000E-21
    CONSTANT  1.00000000E-21
    CONSTANT  1.00000000E-21
    CONSTANT  1.00000000E-21
    CONSTANT  1.00000000E-21
    CONSTANT  1.00000000E-21
    CONSTANT  1.00000000E-21
    CONSTANT  1.00000000E-21
    CONSTANT  1.00000000E-21
    CONSTANT  1.00000000E-21
    CONSTANT  1.00000000E-21
    CONSTANT  1.00000000E-21
    CONSTANT  1.00000000E-21
    CONSTANT  1.00000000E-21
    CONSTANT  1.00000000E-21
    CONSTANT  1.00000000E-21
    CONSTANT  1.00000000E-21
    CONSTANT  1.00000000E-21
    CONSTANT  1.00000000E-21
    CONSTANT  1.00000000E-21
    CONSTANT  1.00000000E-21
    CONSTANT  1.00000000E-21
    CONSTANT  1.00000000E-21
    CONSTANT  1.00000000E-21
    CONSTANT  1.00000000E-21
    CONSTANT  1.00000000E-21
    CONSTANT  1.00000000E-21
    CONSTANT  1.00000000E-21
    CONSTANT  1.00000000E-21
    CONSTANT  1.00000000E-21
    CONSTANT  1.00000000E-21
    CONSTANT  1.00000000E-21
    CONSTANT  1.00000000E-21
    CONSTANT  1.00000000E-21
    CONSTANT  1.00000000E-21
    CONSTANT  1.00000000E-21
    CONSTANT  1.00000000E-21
    CONSTANT  1.00000000E-21
    CONSTANT  1.00000000E-21
    CONSTANT  1.00000000E-21
    CONSTANT  1.00000000E-21
    CONSTANT  1.00000000E-21
    CONSTANT  1.00000000E-21
    CONSTANT  1.00000000E-21
    CONSTANT  1.00000000E-21
    CONSTANT  1.00000000E-21
    CONSTANT  1.00000000E-21
    CONSTANT  1.00000000E-21
    CONSTANT  1.00000000E-21
    CONSTANT  1.00000000E-21
    CONSTANT  1.00000000E-21
    CONSTANT  1.00000000E-21
    CONSTANT  1.00000000E-21
    CONSTANT  1.00000000E-21
    CONSTANT  1.00000000E-21
    CONSTANT  1.00000000E-21
    CONSTANT  1.00000000E-21
    CONSTANT  1.00000000E-21
    CONSTANT  1.00000000E-21
    CONSTANT  1.00000000E-21
    CONSTANT  1.00000000E-21
    CONSTANT  1.00000000E-21
    CONSTANT  1.00000000E-21
    CONSTANT  1.00000000E-21
    CONSTANT  1.00000000E-21
    CONSTANT  1.00000000E-21
    CONSTANT  1.00000000E-21
    CONSTANT  1.00000000E-21
    CONSTANT  1.00000000E-21
    CONSTANT  1.00000000E-21
    CONSTANT  1.00000000E-21
    CONSTANT  1.00000000E-21
    CONSTANT  1.00000000E-21
    CONSTANT  1.00000000E-21
    CONSTANT  1.00000000E-21
    CONSTANT  1.00000000E-21
    CONSTANT  9.80670000E-07
    CONSTANT  9.80670000E-07
    CONSTANT  9.80670000E-07
    CONSTANT  9.80670000E-07
    CONSTANT  9.80670000E-07
    CONSTANT  9.80670000E-07
    CONSTANT  9.80670000E-07
    CONSTANT  9.80670000E-07
    CONSTANT  9.80670000E-07
    CONSTANT  9.80670000E-07
    CONSTANT  9.80670000E-07
    CONSTANT  9.80670000E-07
    CONSTANT  9.80670000E-07
    CONSTANT  9.80670000E-07
    CONSTANT  9.80670000E-07
    CONSTANT  9.80670000E-07
    CONSTANT  9.80670000E-07
    CONSTANT  9.80670000E-07
    CONSTANT  9.80670000E-07
    CONSTANT  9.80670000E-07
    CONSTANT  9.80670000E-07
    CONSTANT  9.80670000E-07
    CONSTANT  9.80670000E-07
    CONSTANT  9.80670000E-07
    CONSTANT  9.80670000E-07
    CONSTANT  9.80670000E-07
    CONSTANT  9.80670000E-07
    CONSTANT  9.80670000E-07
    CONSTANT  9.80670000E-07
    CONSTANT  9.80670000E-07
    CONSTANT  9.80670000E-07
    CONSTANT  9.80670000E-07
    CONSTANT  9.80670000E-07
    CONSTANT  9.80670000E-07
    CONSTANT  9.80670000E-07
    CONSTANT  9.80670000E-07
    CONSTANT  9.80670000E-07
    CONSTANT  9.80670000E-07
    CONSTANT  9.80670000E-07
    CONSTANT  9.80670000E-07
    CONSTANT  9.80670000E-07
    CONSTANT  9.80670000E-07
    CONSTANT  9.80670000E-07
    CONSTANT  9.80670000E-07
    CONSTANT  9.80670000E-07
    CONSTANT  9.80670000E-07
    CONSTANT  9.80670000E-07
    CONSTANT  9.80670000E-07
    CONSTANT  9.80670000E-07
    CONSTANT  9.80670000E-07
    CONSTANT  9.80670000E-07
    CONSTANT  9.80670000E-07
    CONSTANT  9.80670000E-07
    CONSTANT  9.80670000E-07
    CONSTANT  9.80670000E-07
    CONSTANT  9.80670000E-07
    CONSTANT  9.80670000E-07
    CONSTANT  9.80670000E-07
    CONSTANT  9.80670000E-07
    CONSTANT  9.80670000E-07
    CONSTANT  9.80670000E-07
    CONSTANT  9.80670000E-07
    CONSTANT  9.80670000E-07
    CONSTANT  9.80670000E-07
    CONSTANT  9.80670000E-07
    CONSTANT  9.80670000E-07
    CONSTANT  9.80670000E-07
    CONSTANT  9.80670000E-07
    CONSTANT  9.80670000E-07
    CONSTANT  9.80670000E-07
    CONSTANT  9.80670000E-07
    CONSTANT  9.80670000E-07
    CONSTANT  9.80670000E-07
    CONSTANT  9.80670000E-07
    CONSTANT  9.80670000E-07
    CONSTANT  9.80670000E-07
    CONSTANT  9.80670000E-07
    CONSTANT  9.80670000E-07
    CONSTANT  9.80670000E-07
    CONSTANT  9.80670000E-07
    CONSTANT  9.80670000E-07
    CONSTANT  9.80670000E-07
    CONSTANT  9.80670000E-07
    CONSTANT  9.80670000E-07
    CONSTANT  9.80670000E-07
    CONSTANT  9.80670000E-07
    CONSTANT  9.80670000E-07
    CONSTANT  9.80670000E-07
    CONSTANT  9.80670000E-07
    CONSTANT  9.80670000E-07
    CONSTANT  9.80670000E-07
    CONSTANT  9.80670000E-07
    CONSTANT  9.80670000E-07
    CONSTANT  9.80670000E-07
    CONSTANT  9.80670000E-07
    CONSTANT  9.80670000E-07
    CONSTANT  9.80670000E-07
    CONSTANT  9.80670000E-07
    CONSTANT  9.80670000E-07
    CONSTANT  9.80670000E-07
  k33
    CONSTANT  1.00000000E-21
END griddata

