# File generated by Flopy version 3.10.0.dev1 on 02/06/2025 at 18:52:17.
BEGIN options
  TIME_UNITS  seconds
END options

BEGIN dimensions
  NPER  24
END dimensions

BEGIN perioddata
  2.62800000E+06  1       1.00000000
  2.62800000E+06  15       1.00000000
  2.62800000E+06  15       1.00000000
  2.62800000E+06  15       1.00000000
  2.62800000E+06  15       1.00000000
  2.62800000E+06  15       1.00000000
  2.62800000E+06  15       1.00000000
  2.62800000E+06  15       1.00000000
  2.62800000E+06  15       1.00000000
  2.62800000E+06  15       1.00000000
  2.62800000E+06  15       1.00000000
  2.62800000E+06  15       1.00000000
  2.62800000E+06  15       1.00000000
  2.62800000E+06  15       1.00000000
  2.62800000E+06  15       1.00000000
  2.62800000E+06  15       1.00000000
  2.62800000E+06  15       1.00000000
  2.62800000E+06  15       1.00000000
  2.62800000E+06  15       1.00000000
  2.62800000E+06  15       1.00000000
  2.62800000E+06  15       1.00000000
  2.62800000E+06  15       1.00000000
  2.62800000E+06  15       1.00000000
  2.62800000E+06  15       1.00000000
END perioddata

