# File generated by Flopy version 3.10.0.dev1 on 02/06/2025 at 18:50:33.
BEGIN options
  FIRST_ORDER_DECAY
END options

BEGIN griddata
  porosity
    CONSTANT       0.10000000
  decay
    CONSTANT       0.01000000
END griddata

