# File generated by Flopy version 3.10.0.dev1 on 02/06/2025 at 18:50:52.
BEGIN options
  DIGITS  10
  PRINT_INPUT
END options

BEGIN continuous  FILEOUT  trans.obs.csv
  myobs  CONCENTRATION  1 1 82
END continuous  FILEOUT  trans.obs.csv

