# File generated by Flopy version 3.10.0.dev1 on 02/06/2025 at 18:50:33.
BEGIN options
  BUDGET  FILEOUT  trans.cbc
  CONCENTRATION  FILEOUT  trans.ucn
END options

BEGIN period  1
  SAVE  CONCENTRATION  ALL
  SAVE  BUDGET  LAST
  PRINT  CONCENTRATION  LAST
  PRINT  BUDGET  LAST
END period  1

