# File generated by Flopy version 3.10.0.dev1 on 02/06/2025 at 18:49:43.
BEGIN options
  TIME_UNITS  days
END options

BEGIN dimensions
  NPER  2
END dimensions

BEGIN perioddata
  1.00000000E+09  1       1.00000000
     100.00000000  100       1.00000000
END perioddata

