# File generated by Flopy version 3.10.0.dev1 on 02/06/2025 at 18:49:43.
BEGIN options
  BUDGET  FILEOUT  gwe-danckwerts.cbc
  TEMPERATURE  FILEOUT  gwe-danckwerts.ucn
  TEMPERATURE  PRINT_FORMAT  COLUMNS  10  WIDTH  15  DIGITS  6  GENERAL
END options

BEGIN period  1
  SAVE  TEMPERATURE  ALL
  SAVE  BUDGET  ALL
  PRINT  TEMPERATURE  ALL
  PRINT  BUDGET  ALL
END period  1

