# File generated by Flopy version 3.10.0.dev1 on 02/06/2025 at 18:49:43.
BEGIN options
END options

BEGIN griddata
  alh
    CONSTANT       0.00000000
  ath1
    CONSTANT       0.00000000
  ktw
    CONSTANT   51131.52000000
  kts
    CONSTANT   23328.00000000
END griddata

