# File generated by Flopy version 3.10.0.dev1 on 02/06/2025 at 18:49:43.
BEGIN options
  PRINT_FLOWS
  SAVE_FLOWS
  WATER_CONTENT  FILEOUT  gwf-danckwerts.uzfwc.bin
  BUDGET  FILEOUT  gwf-danckwerts.uzf.bud
END options

BEGIN dimensions
  NUZFCELLS  100
  NTRAILWAVES  15
  NWAVESETS  40
END dimensions

BEGIN packagedata
  1  1 1 1  1  2  1.00000000E-05       1.00000000  1.00000000E-04       0.20000000       0.05500000       4.00000000
  2  2 1 1  0  3       0.01000000       1.00000000  1.00000000E-04       0.20000000       0.05500000       4.00000000
  3  3 1 1  0  4       0.01000000       1.00000000  1.00000000E-04       0.20000000       0.05500000       4.00000000
  4  4 1 1  0  5       0.01000000       1.00000000  1.00000000E-04       0.20000000       0.05500000       4.00000000
  5  5 1 1  0  6       0.01000000       1.00000000  1.00000000E-04       0.20000000       0.05500000       4.00000000
  6  6 1 1  0  7       0.01000000       1.00000000  1.00000000E-04       0.20000000       0.05500000       4.00000000
  7  7 1 1  0  8       0.01000000       1.00000000  1.00000000E-04       0.20000000       0.05500000       4.00000000
  8  8 1 1  0  9       0.01000000       1.00000000  1.00000000E-04       0.20000000       0.05500000       4.00000000
  9  9 1 1  0  10       0.01000000       1.00000000  1.00000000E-04       0.20000000       0.05500000       4.00000000
  10  10 1 1  0  11       0.01000000       1.00000000  1.00000000E-04       0.20000000       0.05500000       4.00000000
  11  11 1 1  0  12       0.01000000       1.00000000  1.00000000E-04       0.20000000       0.05500000       4.00000000
  12  12 1 1  0  13       0.01000000       1.00000000  1.00000000E-04       0.20000000       0.05500000       4.00000000
  13  13 1 1  0  14       0.01000000       1.00000000  1.00000000E-04       0.20000000       0.05500000       4.00000000
  14  14 1 1  0  15       0.01000000       1.00000000  1.00000000E-04       0.20000000       0.05500000       4.00000000
  15  15 1 1  0  16       0.01000000       1.00000000  1.00000000E-04       0.20000000       0.05500000       4.00000000
  16  16 1 1  0  17       0.01000000       1.00000000  1.00000000E-04       0.20000000       0.05500000       4.00000000
  17  17 1 1  0  18       0.01000000       1.00000000  1.00000000E-04       0.20000000       0.05500000       4.00000000
  18  18 1 1  0  19       0.01000000       1.00000000  1.00000000E-04       0.20000000       0.05500000       4.00000000
  19  19 1 1  0  20       0.01000000       1.00000000  1.00000000E-04       0.20000000       0.05500000       4.00000000
  20  20 1 1  0  21       0.01000000       1.00000000  1.00000000E-04       0.20000000       0.05500000       4.00000000
  21  21 1 1  0  22       0.01000000       1.00000000  1.00000000E-04       0.20000000       0.05500000       4.00000000
  22  22 1 1  0  23       0.01000000       1.00000000  1.00000000E-04       0.20000000       0.05500000       4.00000000
  23  23 1 1  0  24       0.01000000       1.00000000  1.00000000E-04       0.20000000       0.05500000       4.00000000
  24  24 1 1  0  25       0.01000000       1.00000000  1.00000000E-04       0.20000000       0.05500000       4.00000000
  25  25 1 1  0  26       0.01000000       1.00000000  1.00000000E-04       0.20000000       0.05500000       4.00000000
  26  26 1 1  0  27       0.01000000       1.00000000  1.00000000E-04       0.20000000       0.05500000       4.00000000
  27  27 1 1  0  28       0.01000000       1.00000000  1.00000000E-04       0.20000000       0.05500000       4.00000000
  28  28 1 1  0  29       0.01000000       1.00000000  1.00000000E-04       0.20000000       0.05500000       4.00000000
  29  29 1 1  0  30       0.01000000       1.00000000  1.00000000E-04       0.20000000       0.05500000       4.00000000
  30  30 1 1  0  31       0.01000000       1.00000000  1.00000000E-04       0.20000000       0.05500000       4.00000000
  31  31 1 1  0  32       0.01000000       1.00000000  1.00000000E-04       0.20000000       0.05500000       4.00000000
  32  32 1 1  0  33       0.01000000       1.00000000  1.00000000E-04       0.20000000       0.05500000       4.00000000
  33  33 1 1  0  34       0.01000000       1.00000000  1.00000000E-04       0.20000000       0.05500000       4.00000000
  34  34 1 1  0  35       0.01000000       1.00000000  1.00000000E-04       0.20000000       0.05500000       4.00000000
  35  35 1 1  0  36       0.01000000       1.00000000  1.00000000E-04       0.20000000       0.05500000       4.00000000
  36  36 1 1  0  37       0.01000000       1.00000000  1.00000000E-04       0.20000000       0.05500000       4.00000000
  37  37 1 1  0  38       0.01000000       1.00000000  1.00000000E-04       0.20000000       0.05500000       4.00000000
  38  38 1 1  0  39       0.01000000       1.00000000  1.00000000E-04       0.20000000       0.05500000       4.00000000
  39  39 1 1  0  40       0.01000000       1.00000000  1.00000000E-04       0.20000000       0.05500000       4.00000000
  40  40 1 1  0  41       0.01000000       1.00000000  1.00000000E-04       0.20000000       0.05500000       4.00000000
  41  41 1 1  0  42       0.01000000       1.00000000  1.00000000E-04       0.20000000       0.05500000       4.00000000
  42  42 1 1  0  43       0.01000000       1.00000000  1.00000000E-04       0.20000000       0.05500000       4.00000000
  43  43 1 1  0  44       0.01000000       1.00000000  1.00000000E-04       0.20000000       0.05500000       4.00000000
  44  44 1 1  0  45       0.01000000       1.00000000  1.00000000E-04       0.20000000       0.05500000       4.00000000
  45  45 1 1  0  46       0.01000000       1.00000000  1.00000000E-04       0.20000000       0.05500000       4.00000000
  46  46 1 1  0  47       0.01000000       1.00000000  1.00000000E-04       0.20000000       0.05500000       4.00000000
  47  47 1 1  0  48       0.01000000       1.00000000  1.00000000E-04       0.20000000       0.05500000       4.00000000
  48  48 1 1  0  49       0.01000000       1.00000000  1.00000000E-04       0.20000000       0.05500000       4.00000000
  49  49 1 1  0  50       0.01000000       1.00000000  1.00000000E-04       0.20000000       0.05500000       4.00000000
  50  50 1 1  0  51       0.01000000       1.00000000  1.00000000E-04       0.20000000       0.05500000       4.00000000
  51  51 1 1  0  52       0.01000000       1.00000000  1.00000000E-04       0.20000000       0.05500000       4.00000000
  52  52 1 1  0  53       0.01000000       1.00000000  1.00000000E-04       0.20000000       0.05500000       4.00000000
  53  53 1 1  0  54       0.01000000       1.00000000  1.00000000E-04       0.20000000       0.05500000       4.00000000
  54  54 1 1  0  55       0.01000000       1.00000000  1.00000000E-04       0.20000000       0.05500000       4.00000000
  55  55 1 1  0  56       0.01000000       1.00000000  1.00000000E-04       0.20000000       0.05500000       4.00000000
  56  56 1 1  0  57       0.01000000       1.00000000  1.00000000E-04       0.20000000       0.05500000       4.00000000
  57  57 1 1  0  58       0.01000000       1.00000000  1.00000000E-04       0.20000000       0.05500000       4.00000000
  58  58 1 1  0  59       0.01000000       1.00000000  1.00000000E-04       0.20000000       0.05500000       4.00000000
  59  59 1 1  0  60       0.01000000       1.00000000  1.00000000E-04       0.20000000       0.05500000       4.00000000
  60  60 1 1  0  61       0.01000000       1.00000000  1.00000000E-04       0.20000000       0.05500000       4.00000000
  61  61 1 1  0  62       0.01000000       1.00000000  1.00000000E-04       0.20000000       0.05500000       4.00000000
  62  62 1 1  0  63       0.01000000       1.00000000  1.00000000E-04       0.20000000       0.05500000       4.00000000
  63  63 1 1  0  64       0.01000000       1.00000000  1.00000000E-04       0.20000000       0.05500000       4.00000000
  64  64 1 1  0  65       0.01000000       1.00000000  1.00000000E-04       0.20000000       0.05500000       4.00000000
  65  65 1 1  0  66       0.01000000       1.00000000  1.00000000E-04       0.20000000       0.05500000       4.00000000
  66  66 1 1  0  67       0.01000000       1.00000000  1.00000000E-04       0.20000000       0.05500000       4.00000000
  67  67 1 1  0  68       0.01000000       1.00000000  1.00000000E-04       0.20000000       0.05500000       4.00000000
  68  68 1 1  0  69       0.01000000       1.00000000  1.00000000E-04       0.20000000       0.05500000       4.00000000
  69  69 1 1  0  70       0.01000000       1.00000000  1.00000000E-04       0.20000000       0.05500000       4.00000000
  70  70 1 1  0  71       0.01000000       1.00000000  1.00000000E-04       0.20000000       0.05500000       4.00000000
  71  71 1 1  0  72       0.01000000       1.00000000  1.00000000E-04       0.20000000       0.05500000       4.00000000
  72  72 1 1  0  73       0.01000000       1.00000000  1.00000000E-04       0.20000000       0.05500000       4.00000000
  73  73 1 1  0  74       0.01000000       1.00000000  1.00000000E-04       0.20000000       0.05500000       4.00000000
  74  74 1 1  0  75       0.01000000       1.00000000  1.00000000E-04       0.20000000       0.05500000       4.00000000
  75  75 1 1  0  76       0.01000000       1.00000000  1.00000000E-04       0.20000000       0.05500000       4.00000000
  76  76 1 1  0  77       0.01000000       1.00000000  1.00000000E-04       0.20000000       0.05500000       4.00000000
  77  77 1 1  0  78       0.01000000       1.00000000  1.00000000E-04       0.20000000       0.05500000       4.00000000
  78  78 1 1  0  79       0.01000000       1.00000000  1.00000000E-04       0.20000000       0.05500000       4.00000000
  79  79 1 1  0  80       0.01000000       1.00000000  1.00000000E-04       0.20000000       0.05500000       4.00000000
  80  80 1 1  0  81       0.01000000       1.00000000  1.00000000E-04       0.20000000       0.05500000       4.00000000
  81  81 1 1  0  82       0.01000000       1.00000000  1.00000000E-04       0.20000000       0.05500000       4.00000000
  82  82 1 1  0  83       0.01000000       1.00000000  1.00000000E-04       0.20000000       0.05500000       4.00000000
  83  83 1 1  0  84       0.01000000       1.00000000  1.00000000E-04       0.20000000       0.05500000       4.00000000
  84  84 1 1  0  85       0.01000000       1.00000000  1.00000000E-04       0.20000000       0.05500000       4.00000000
  85  85 1 1  0  86       0.01000000       1.00000000  1.00000000E-04       0.20000000       0.05500000       4.00000000
  86  86 1 1  0  87       0.01000000       1.00000000  1.00000000E-04       0.20000000       0.05500000       4.00000000
  87  87 1 1  0  88       0.01000000       1.00000000  1.00000000E-04       0.20000000       0.05500000       4.00000000
  88  88 1 1  0  89       0.01000000       1.00000000  1.00000000E-04       0.20000000       0.05500000       4.00000000
  89  89 1 1  0  90       0.01000000       1.00000000  1.00000000E-04       0.20000000       0.05500000       4.00000000
  90  90 1 1  0  91       0.01000000       1.00000000  1.00000000E-04       0.20000000       0.05500000       4.00000000
  91  91 1 1  0  92       0.01000000       1.00000000  1.00000000E-04       0.20000000       0.05500000       4.00000000
  92  92 1 1  0  93       0.01000000       1.00000000  1.00000000E-04       0.20000000       0.05500000       4.00000000
  93  93 1 1  0  94       0.01000000       1.00000000  1.00000000E-04       0.20000000       0.05500000       4.00000000
  94  94 1 1  0  95       0.01000000       1.00000000  1.00000000E-04       0.20000000       0.05500000       4.00000000
  95  95 1 1  0  96       0.01000000       1.00000000  1.00000000E-04       0.20000000       0.05500000       4.00000000
  96  96 1 1  0  97       0.01000000       1.00000000  1.00000000E-04       0.20000000       0.05500000       4.00000000
  97  97 1 1  0  98       0.01000000       1.00000000  1.00000000E-04       0.20000000       0.05500000       4.00000000
  98  98 1 1  0  99       0.01000000       1.00000000  1.00000000E-04       0.20000000       0.05500000       4.00000000
  99  99 1 1  0  100       0.01000000       1.00000000  1.00000000E-04       0.20000000       0.05500000       4.00000000
  100  100 1 1  0  0       0.01000000       1.00000000  1.00000000E-04       0.20000000       0.05500000       4.00000000
END packagedata

BEGIN period  1
  1  0.01  0.0  0.0  0.0  0.0  0.0  0.0
END period  1

BEGIN period  2
  1  0.01  0.0  0.0  0.0  0.0  0.0  0.0
END period  2

