# File generated by Flopy version 3.10.0.dev1 on 02/06/2025 at 18:49:43.
BEGIN options
  auxiliary  TEMPERATURE
  PRINT_FLOWS
END options

BEGIN dimensions
  MAXBOUND  1
END dimensions

BEGIN period  1
  101 1 1 5.00000000E-02 1.00000000E+01
END period  1

