# File generated by Flopy version 3.10.0.dev1 on 02/06/2025 at 18:50:29.
BEGIN options
  PRINT_FLOWS
END options

BEGIN dimensions
  MAXBOUND  1
END dimensions

BEGIN period  1
  7 42 22  -1.43400000E-05
END period  1

