# File generated by Flopy version 3.10.0.dev1 on 02/06/2025 at 18:50:48.
BEGIN options
  TIME_UNITS  seconds
END options

BEGIN dimensions
  NPER  2
END dimensions

BEGIN perioddata
  3.15360000E+07  365       1.00000000
  3.15360000E+07  365       1.00000000
END perioddata

