# File generated by Flopy version 3.10.0.dev1 on 02/06/2025 at 18:50:48.
BEGIN options
  PRINT_FLOWS
END options

BEGIN sources
  WEL-1  AUX  CONCENTRATION
  CHD-1  AUX  CONCENTRATION
END sources

