# File generated by Flopy version 3.10.0.dev1 on 02/06/2025 at 18:50:48.
BEGIN options
END options

BEGIN griddata
  alh
    CONSTANT      20.00000000
  ath1
    CONSTANT       4.00000000
END griddata

