# File generated by Flopy version 3.10.0.dev1 on 02/06/2025 at 18:50:39.
BEGIN options
END options

BEGIN griddata
  porosity
    CONSTANT       1.95700000
  volfrac
    CONSTANT       0.81093510
  zetaim
    CONSTANT       0.01000000
END griddata

