# File generated by Flopy version 3.10.0.dev1 on 02/06/2025 at 18:51:11.
BEGIN options
  TIME_UNITS  seconds
END options

BEGIN dimensions
  NPER  600
END dimensions

BEGIN perioddata
  5.25600000E+05  6       1.00000000
  5.25600000E+05  6       1.00000000
  5.25600000E+05  6       1.00000000
  5.25600000E+05  6       1.00000000
  5.25600000E+05  6       1.00000000
  5.25600000E+05  6       1.00000000
  5.25600000E+05  6       1.00000000
  5.25600000E+05  6       1.00000000
  5.25600000E+05  6       1.00000000
  5.25600000E+05  6       1.00000000
  5.25600000E+05  6       1.00000000
  5.25600000E+05  6       1.00000000
  5.25600000E+05  6       1.00000000
  5.25600000E+05  6       1.00000000
  5.25600000E+05  6       1.00000000
  5.25600000E+05  6       1.00000000
  5.25600000E+05  6       1.00000000
  5.25600000E+05  6       1.00000000
  5.25600000E+05  6       1.00000000
  5.25600000E+05  6       1.00000000
  5.25600000E+05  6       1.00000000
  5.25600000E+05  6       1.00000000
  5.25600000E+05  6       1.00000000
  5.25600000E+05  6       1.00000000
  5.25600000E+05  6       1.00000000
  5.25600000E+05  6       1.00000000
  5.25600000E+05  6       1.00000000
  5.25600000E+05  6       1.00000000
  5.25600000E+05  6       1.00000000
  5.25600000E+05  6       1.00000000
  5.25600000E+05  6       1.00000000
  5.25600000E+05  6       1.00000000
  5.25600000E+05  6       1.00000000
  5.25600000E+05  6       1.00000000
  5.25600000E+05  6       1.00000000
  5.25600000E+05  6       1.00000000
  5.25600000E+05  6       1.00000000
  5.25600000E+05  6       1.00000000
  5.25600000E+05  6       1.00000000
  5.25600000E+05  6       1.00000000
  5.25600000E+05  6       1.00000000
  5.25600000E+05  6       1.00000000
  5.25600000E+05  6       1.00000000
  5.25600000E+05  6       1.00000000
  5.25600000E+05  6       1.00000000
  5.25600000E+05  6       1.00000000
  5.25600000E+05  6       1.00000000
  5.25600000E+05  6       1.00000000
  5.25600000E+05  6       1.00000000
  5.25600000E+05  6       1.00000000
  5.25600000E+05  6       1.00000000
  5.25600000E+05  6       1.00000000
  5.25600000E+05  6       1.00000000
  5.25600000E+05  6       1.00000000
  5.25600000E+05  6       1.00000000
  5.25600000E+05  6       1.00000000
  5.25600000E+05  6       1.00000000
  5.25600000E+05  6       1.00000000
  5.25600000E+05  6       1.00000000
  5.25600000E+05  6       1.00000000
  5.25600000E+05  6       1.00000000
  5.25600000E+05  6       1.00000000
  5.25600000E+05  6       1.00000000
  5.25600000E+05  6       1.00000000
  5.25600000E+05  6       1.00000000
  5.25600000E+05  6       1.00000000
  5.25600000E+05  6       1.00000000
  5.25600000E+05  6       1.00000000
  5.25600000E+05  6       1.00000000
  5.25600000E+05  6       1.00000000
  5.25600000E+05  6       1.00000000
  5.25600000E+05  6       1.00000000
  5.25600000E+05  6       1.00000000
  5.25600000E+05  6       1.00000000
  5.25600000E+05  6       1.00000000
  5.25600000E+05  6       1.00000000
  5.25600000E+05  6       1.00000000
  5.25600000E+05  6       1.00000000
  5.25600000E+05  6       1.00000000
  5.25600000E+05  6       1.00000000
  5.25600000E+05  6       1.00000000
  5.25600000E+05  6       1.00000000
  5.25600000E+05  6       1.00000000
  5.25600000E+05  6       1.00000000
  5.25600000E+05  6       1.00000000
  5.25600000E+05  6       1.00000000
  5.25600000E+05  6       1.00000000
  5.25600000E+05  6       1.00000000
  5.25600000E+05  6       1.00000000
  5.25600000E+05  6       1.00000000
  5.25600000E+05  6       1.00000000
  5.25600000E+05  6       1.00000000
  5.25600000E+05  6       1.00000000
  5.25600000E+05  6       1.00000000
  5.25600000E+05  6       1.00000000
  5.25600000E+05  6       1.00000000
  5.25600000E+05  6       1.00000000
  5.25600000E+05  6       1.00000000
  5.25600000E+05  6       1.00000000
  5.25600000E+05  6       1.00000000
  5.25600000E+05  6       1.00000000
  5.25600000E+05  6       1.00000000
  5.25600000E+05  6       1.00000000
  5.25600000E+05  6       1.00000000
  5.25600000E+05  6       1.00000000
  5.25600000E+05  6       1.00000000
  5.25600000E+05  6       1.00000000
  5.25600000E+05  6       1.00000000
  5.25600000E+05  6       1.00000000
  5.25600000E+05  6       1.00000000
  5.25600000E+05  6       1.00000000
  5.25600000E+05  6       1.00000000
  5.25600000E+05  6       1.00000000
  5.25600000E+05  6       1.00000000
  5.25600000E+05  6       1.00000000
  5.25600000E+05  6       1.00000000
  5.25600000E+05  6       1.00000000
  5.25600000E+05  6       1.00000000
  5.25600000E+05  6       1.00000000
  5.25600000E+05  6       1.00000000
  5.25600000E+05  6       1.00000000
  5.25600000E+05  6       1.00000000
  5.25600000E+05  6       1.00000000
  5.25600000E+05  6       1.00000000
  5.25600000E+05  6       1.00000000
  5.25600000E+05  6       1.00000000
  5.25600000E+05  6       1.00000000
  5.25600000E+05  6       1.00000000
  5.25600000E+05  6       1.00000000
  5.25600000E+05  6       1.00000000
  5.25600000E+05  6       1.00000000
  5.25600000E+05  6       1.00000000
  5.25600000E+05  6       1.00000000
  5.25600000E+05  6       1.00000000
  5.25600000E+05  6       1.00000000
  5.25600000E+05  6       1.00000000
  5.25600000E+05  6       1.00000000
  5.25600000E+05  6       1.00000000
  5.25600000E+05  6       1.00000000
  5.25600000E+05  6       1.00000000
  5.25600000E+05  6       1.00000000
  5.25600000E+05  6       1.00000000
  5.25600000E+05  6       1.00000000
  5.25600000E+05  6       1.00000000
  5.25600000E+05  6       1.00000000
  5.25600000E+05  6       1.00000000
  5.25600000E+05  6       1.00000000
  5.25600000E+05  6       1.00000000
  5.25600000E+05  6       1.00000000
  5.25600000E+05  6       1.00000000
  5.25600000E+05  6       1.00000000
  5.25600000E+05  6       1.00000000
  5.25600000E+05  6       1.00000000
  5.25600000E+05  6       1.00000000
  5.25600000E+05  6       1.00000000
  5.25600000E+05  6       1.00000000
  5.25600000E+05  6       1.00000000
  5.25600000E+05  6       1.00000000
  5.25600000E+05  6       1.00000000
  5.25600000E+05  6       1.00000000
  5.25600000E+05  6       1.00000000
  5.25600000E+05  6       1.00000000
  5.25600000E+05  6       1.00000000
  5.25600000E+05  6       1.00000000
  5.25600000E+05  6       1.00000000
  5.25600000E+05  6       1.00000000
  5.25600000E+05  6       1.00000000
  5.25600000E+05  6       1.00000000
  5.25600000E+05  6       1.00000000
  5.25600000E+05  6       1.00000000
  5.25600000E+05  6       1.00000000
  5.25600000E+05  6       1.00000000
  5.25600000E+05  6       1.00000000
  5.25600000E+05  6       1.00000000
  5.25600000E+05  6       1.00000000
  5.25600000E+05  6       1.00000000
  5.25600000E+05  6       1.00000000
  5.25600000E+05  6       1.00000000
  5.25600000E+05  6       1.00000000
  5.25600000E+05  6       1.00000000
  5.25600000E+05  6       1.00000000
  5.25600000E+05  6       1.00000000
  5.25600000E+05  6       1.00000000
  5.25600000E+05  6       1.00000000
  5.25600000E+05  6       1.00000000
  5.25600000E+05  6       1.00000000
  5.25600000E+05  6       1.00000000
  5.25600000E+05  6       1.00000000
  5.25600000E+05  6       1.00000000
  5.25600000E+05  6       1.00000000
  5.25600000E+05  6       1.00000000
  5.25600000E+05  6       1.00000000
  5.25600000E+05  6       1.00000000
  5.25600000E+05  6       1.00000000
  5.25600000E+05  6       1.00000000
  5.25600000E+05  6       1.00000000
  5.25600000E+05  6       1.00000000
  5.25600000E+05  6       1.00000000
  5.25600000E+05  6       1.00000000
  5.25600000E+05  6       1.00000000
  5.25600000E+05  6       1.00000000
  5.25600000E+05  6       1.00000000
  5.25600000E+05  6       1.00000000
  5.25600000E+05  6       1.00000000
  5.25600000E+05  6       1.00000000
  5.25600000E+05  6       1.00000000
  5.25600000E+05  6       1.00000000
  5.25600000E+05  6       1.00000000
  5.25600000E+05  6       1.00000000
  5.25600000E+05  6       1.00000000
  5.25600000E+05  6       1.00000000
  5.25600000E+05  6       1.00000000
  5.25600000E+05  6       1.00000000
  5.25600000E+05  6       1.00000000
  5.25600000E+05  6       1.00000000
  5.25600000E+05  6       1.00000000
  5.25600000E+05  6       1.00000000
  5.25600000E+05  6       1.00000000
  5.25600000E+05  6       1.00000000
  5.25600000E+05  6       1.00000000
  5.25600000E+05  6       1.00000000
  5.25600000E+05  6       1.00000000
  5.25600000E+05  6       1.00000000
  5.25600000E+05  6       1.00000000
  5.25600000E+05  6       1.00000000
  5.25600000E+05  6       1.00000000
  5.25600000E+05  6       1.00000000
  5.25600000E+05  6       1.00000000
  5.25600000E+05  6       1.00000000
  5.25600000E+05  6       1.00000000
  5.25600000E+05  6       1.00000000
  5.25600000E+05  6       1.00000000
  5.25600000E+05  6       1.00000000
  5.25600000E+05  6       1.00000000
  5.25600000E+05  6       1.00000000
  5.25600000E+05  6       1.00000000
  5.25600000E+05  6       1.00000000
  5.25600000E+05  6       1.00000000
  5.25600000E+05  6       1.00000000
  5.25600000E+05  6       1.00000000
  5.25600000E+05  6       1.00000000
  5.25600000E+05  6       1.00000000
  5.25600000E+05  6       1.00000000
  5.25600000E+05  6       1.00000000
  5.25600000E+05  6       1.00000000
  5.25600000E+05  6       1.00000000
  5.25600000E+05  6       1.00000000
  5.25600000E+05  6       1.00000000
  5.25600000E+05  6       1.00000000
  5.25600000E+05  6       1.00000000
  5.25600000E+05  6       1.00000000
  5.25600000E+05  6       1.00000000
  5.25600000E+05  6       1.00000000
  5.25600000E+05  6       1.00000000
  5.25600000E+05  6       1.00000000
  5.25600000E+05  6       1.00000000
  5.25600000E+05  6       1.00000000
  5.25600000E+05  6       1.00000000
  5.25600000E+05  6       1.00000000
  5.25600000E+05  6       1.00000000
  5.25600000E+05  6       1.00000000
  5.25600000E+05  6       1.00000000
  5.25600000E+05  6       1.00000000
  5.25600000E+05  6       1.00000000
  5.25600000E+05  6       1.00000000
  5.25600000E+05  6       1.00000000
  5.25600000E+05  6       1.00000000
  5.25600000E+05  6       1.00000000
  5.25600000E+05  6       1.00000000
  5.25600000E+05  6       1.00000000
  5.25600000E+05  6       1.00000000
  5.25600000E+05  6       1.00000000
  5.25600000E+05  6       1.00000000
  5.25600000E+05  6       1.00000000
  5.25600000E+05  6       1.00000000
  5.25600000E+05  6       1.00000000
  5.25600000E+05  6       1.00000000
  5.25600000E+05  6       1.00000000
  5.25600000E+05  6       1.00000000
  5.25600000E+05  6       1.00000000
  5.25600000E+05  6       1.00000000
  5.25600000E+05  6       1.00000000
  5.25600000E+05  6       1.00000000
  5.25600000E+05  6       1.00000000
  5.25600000E+05  6       1.00000000
  5.25600000E+05  6       1.00000000
  5.25600000E+05  6       1.00000000
  5.25600000E+05  6       1.00000000
  5.25600000E+05  6       1.00000000
  5.25600000E+05  6       1.00000000
  5.25600000E+05  6       1.00000000
  5.25600000E+05  6       1.00000000
  5.25600000E+05  6       1.00000000
  5.25600000E+05  6       1.00000000
  5.25600000E+05  6       1.00000000
  5.25600000E+05  6       1.00000000
  5.25600000E+05  6       1.00000000
  5.25600000E+05  6       1.00000000
  5.25600000E+05  6       1.00000000
  5.25600000E+05  6       1.00000000
  5.25600000E+05  6       1.00000000
  5.25600000E+05  6       1.00000000
  5.25600000E+05  6       1.00000000
  5.25600000E+05  6       1.00000000
  5.25600000E+05  6       1.00000000
  5.25600000E+05  6       1.00000000
  5.25600000E+05  6       1.00000000
  5.25600000E+05  6       1.00000000
  5.25600000E+05  6       1.00000000
  5.25600000E+05  6       1.00000000
  5.25600000E+05  6       1.00000000
  5.25600000E+05  6       1.00000000
  5.25600000E+05  6       1.00000000
  5.25600000E+05  6       1.00000000
  5.25600000E+05  6       1.00000000
  5.25600000E+05  6       1.00000000
  5.25600000E+05  6       1.00000000
  5.25600000E+05  6       1.00000000
  5.25600000E+05  6       1.00000000
  5.25600000E+05  6       1.00000000
  5.25600000E+05  6       1.00000000
  5.25600000E+05  6       1.00000000
  5.25600000E+05  6       1.00000000
  5.25600000E+05  6       1.00000000
  5.25600000E+05  6       1.00000000
  5.25600000E+05  6       1.00000000
  5.25600000E+05  6       1.00000000
  5.25600000E+05  6       1.00000000
  5.25600000E+05  6       1.00000000
  5.25600000E+05  6       1.00000000
  5.25600000E+05  6       1.00000000
  5.25600000E+05  6       1.00000000
  5.25600000E+05  6       1.00000000
  5.25600000E+05  6       1.00000000
  5.25600000E+05  6       1.00000000
  5.25600000E+05  6       1.00000000
  5.25600000E+05  6       1.00000000
  5.25600000E+05  6       1.00000000
  5.25600000E+05  6       1.00000000
  5.25600000E+05  6       1.00000000
  5.25600000E+05  6       1.00000000
  5.25600000E+05  6       1.00000000
  5.25600000E+05  6       1.00000000
  5.25600000E+05  6       1.00000000
  5.25600000E+05  6       1.00000000
  5.25600000E+05  6       1.00000000
  5.25600000E+05  6       1.00000000
  5.25600000E+05  6       1.00000000
  5.25600000E+05  6       1.00000000
  5.25600000E+05  6       1.00000000
  5.25600000E+05  6       1.00000000
  5.25600000E+05  6       1.00000000
  5.25600000E+05  6       1.00000000
  5.25600000E+05  6       1.00000000
  5.25600000E+05  6       1.00000000
  5.25600000E+05  6       1.00000000
  5.25600000E+05  6       1.00000000
  5.25600000E+05  6       1.00000000
  5.25600000E+05  6       1.00000000
  5.25600000E+05  6       1.00000000
  5.25600000E+05  6       1.00000000
  5.25600000E+05  6       1.00000000
  5.25600000E+05  6       1.00000000
  5.25600000E+05  6       1.00000000
  5.25600000E+05  6       1.00000000
  5.25600000E+05  6       1.00000000
  5.25600000E+05  6       1.00000000
  5.25600000E+05  6       1.00000000
  5.25600000E+05  6       1.00000000
  5.25600000E+05  6       1.00000000
  5.25600000E+05  6       1.00000000
  5.25600000E+05  6       1.00000000
  5.25600000E+05  6       1.00000000
  5.25600000E+05  6       1.00000000
  5.25600000E+05  6       1.00000000
  5.25600000E+05  6       1.00000000
  5.25600000E+05  6       1.00000000
  5.25600000E+05  6       1.00000000
  5.25600000E+05  6       1.00000000
  5.25600000E+05  6       1.00000000
  5.25600000E+05  6       1.00000000
  5.25600000E+05  6       1.00000000
  5.25600000E+05  6       1.00000000
  5.25600000E+05  6       1.00000000
  5.25600000E+05  6       1.00000000
  5.25600000E+05  6       1.00000000
  5.25600000E+05  6       1.00000000
  5.25600000E+05  6       1.00000000
  5.25600000E+05  6       1.00000000
  5.25600000E+05  6       1.00000000
  5.25600000E+05  6       1.00000000
  5.25600000E+05  6       1.00000000
  5.25600000E+05  6       1.00000000
  5.25600000E+05  6       1.00000000
  5.25600000E+05  6       1.00000000
  5.25600000E+05  6       1.00000000
  5.25600000E+05  6       1.00000000
  5.25600000E+05  6       1.00000000
  5.25600000E+05  6       1.00000000
  5.25600000E+05  6       1.00000000
  5.25600000E+05  6       1.00000000
  5.25600000E+05  6       1.00000000
  5.25600000E+05  6       1.00000000
  5.25600000E+05  6       1.00000000
  5.25600000E+05  6       1.00000000
  5.25600000E+05  6       1.00000000
  5.25600000E+05  6       1.00000000
  5.25600000E+05  6       1.00000000
  5.25600000E+05  6       1.00000000
  5.25600000E+05  6       1.00000000
  5.25600000E+05  6       1.00000000
  5.25600000E+05  6       1.00000000
  5.25600000E+05  6       1.00000000
  5.25600000E+05  6       1.00000000
  5.25600000E+05  6       1.00000000
  5.25600000E+05  6       1.00000000
  5.25600000E+05  6       1.00000000
  5.25600000E+05  6       1.00000000
  5.25600000E+05  6       1.00000000
  5.25600000E+05  6       1.00000000
  5.25600000E+05  6       1.00000000
  5.25600000E+05  6       1.00000000
  5.25600000E+05  6       1.00000000
  5.25600000E+05  6       1.00000000
  5.25600000E+05  6       1.00000000
  5.25600000E+05  6       1.00000000
  5.25600000E+05  6       1.00000000
  5.25600000E+05  6       1.00000000
  5.25600000E+05  6       1.00000000
  5.25600000E+05  6       1.00000000
  5.25600000E+05  6       1.00000000
  5.25600000E+05  6       1.00000000
  5.25600000E+05  6       1.00000000
  5.25600000E+05  6       1.00000000
  5.25600000E+05  6       1.00000000
  5.25600000E+05  6       1.00000000
  5.25600000E+05  6       1.00000000
  5.25600000E+05  6       1.00000000
  5.25600000E+05  6       1.00000000
  5.25600000E+05  6       1.00000000
  5.25600000E+05  6       1.00000000
  5.25600000E+05  6       1.00000000
  5.25600000E+05  6       1.00000000
  5.25600000E+05  6       1.00000000
  5.25600000E+05  6       1.00000000
  5.25600000E+05  6       1.00000000
  5.25600000E+05  6       1.00000000
  5.25600000E+05  6       1.00000000
  5.25600000E+05  6       1.00000000
  5.25600000E+05  6       1.00000000
  5.25600000E+05  6       1.00000000
  5.25600000E+05  6       1.00000000
  5.25600000E+05  6       1.00000000
  5.25600000E+05  6       1.00000000
  5.25600000E+05  6       1.00000000
  5.25600000E+05  6       1.00000000
  5.25600000E+05  6       1.00000000
  5.25600000E+05  6       1.00000000
  5.25600000E+05  6       1.00000000
  5.25600000E+05  6       1.00000000
  5.25600000E+05  6       1.00000000
  5.25600000E+05  6       1.00000000
  5.25600000E+05  6       1.00000000
  5.25600000E+05  6       1.00000000
  5.25600000E+05  6       1.00000000
  5.25600000E+05  6       1.00000000
  5.25600000E+05  6       1.00000000
  5.25600000E+05  6       1.00000000
  5.25600000E+05  6       1.00000000
  5.25600000E+05  6       1.00000000
  5.25600000E+05  6       1.00000000
  5.25600000E+05  6       1.00000000
  5.25600000E+05  6       1.00000000
  5.25600000E+05  6       1.00000000
  5.25600000E+05  6       1.00000000
  5.25600000E+05  6       1.00000000
  5.25600000E+05  6       1.00000000
  5.25600000E+05  6       1.00000000
  5.25600000E+05  6       1.00000000
  5.25600000E+05  6       1.00000000
  5.25600000E+05  6       1.00000000
  5.25600000E+05  6       1.00000000
  5.25600000E+05  6       1.00000000
  5.25600000E+05  6       1.00000000
  5.25600000E+05  6       1.00000000
  5.25600000E+05  6       1.00000000
  5.25600000E+05  6       1.00000000
  5.25600000E+05  6       1.00000000
  5.25600000E+05  6       1.00000000
  5.25600000E+05  6       1.00000000
  5.25600000E+05  6       1.00000000
  5.25600000E+05  6       1.00000000
  5.25600000E+05  6       1.00000000
  5.25600000E+05  6       1.00000000
  5.25600000E+05  6       1.00000000
  5.25600000E+05  6       1.00000000
  5.25600000E+05  6       1.00000000
  5.25600000E+05  6       1.00000000
  5.25600000E+05  6       1.00000000
  5.25600000E+05  6       1.00000000
  5.25600000E+05  6       1.00000000
  5.25600000E+05  6       1.00000000
  5.25600000E+05  6       1.00000000
  5.25600000E+05  6       1.00000000
  5.25600000E+05  6       1.00000000
  5.25600000E+05  6       1.00000000
  5.25600000E+05  6       1.00000000
  5.25600000E+05  6       1.00000000
  5.25600000E+05  6       1.00000000
  5.25600000E+05  6       1.00000000
  5.25600000E+05  6       1.00000000
  5.25600000E+05  6       1.00000000
  5.25600000E+05  6       1.00000000
  5.25600000E+05  6       1.00000000
  5.25600000E+05  6       1.00000000
  5.25600000E+05  6       1.00000000
  5.25600000E+05  6       1.00000000
  5.25600000E+05  6       1.00000000
  5.25600000E+05  6       1.00000000
  5.25600000E+05  6       1.00000000
  5.25600000E+05  6       1.00000000
  5.25600000E+05  6       1.00000000
  5.25600000E+05  6       1.00000000
  5.25600000E+05  6       1.00000000
  5.25600000E+05  6       1.00000000
  5.25600000E+05  6       1.00000000
  5.25600000E+05  6       1.00000000
  5.25600000E+05  6       1.00000000
  5.25600000E+05  6       1.00000000
  5.25600000E+05  6       1.00000000
  5.25600000E+05  6       1.00000000
  5.25600000E+05  6       1.00000000
  5.25600000E+05  6       1.00000000
  5.25600000E+05  6       1.00000000
  5.25600000E+05  6       1.00000000
  5.25600000E+05  6       1.00000000
  5.25600000E+05  6       1.00000000
  5.25600000E+05  6       1.00000000
  5.25600000E+05  6       1.00000000
  5.25600000E+05  6       1.00000000
  5.25600000E+05  6       1.00000000
  5.25600000E+05  6       1.00000000
  5.25600000E+05  6       1.00000000
  5.25600000E+05  6       1.00000000
  5.25600000E+05  6       1.00000000
  5.25600000E+05  6       1.00000000
  5.25600000E+05  6       1.00000000
  5.25600000E+05  6       1.00000000
  5.25600000E+05  6       1.00000000
  5.25600000E+05  6       1.00000000
  5.25600000E+05  6       1.00000000
  5.25600000E+05  6       1.00000000
  5.25600000E+05  6       1.00000000
  5.25600000E+05  6       1.00000000
  5.25600000E+05  6       1.00000000
  5.25600000E+05  6       1.00000000
  5.25600000E+05  6       1.00000000
  5.25600000E+05  6       1.00000000
  5.25600000E+05  6       1.00000000
  5.25600000E+05  6       1.00000000
  5.25600000E+05  6       1.00000000
  5.25600000E+05  6       1.00000000
  5.25600000E+05  6       1.00000000
  5.25600000E+05  6       1.00000000
  5.25600000E+05  6       1.00000000
  5.25600000E+05  6       1.00000000
  5.25600000E+05  6       1.00000000
  5.25600000E+05  6       1.00000000
  5.25600000E+05  6       1.00000000
  5.25600000E+05  6       1.00000000
  5.25600000E+05  6       1.00000000
  5.25600000E+05  6       1.00000000
  5.25600000E+05  6       1.00000000
  5.25600000E+05  6       1.00000000
  5.25600000E+05  6       1.00000000
  5.25600000E+05  6       1.00000000
  5.25600000E+05  6       1.00000000
  5.25600000E+05  6       1.00000000
  5.25600000E+05  6       1.00000000
  5.25600000E+05  6       1.00000000
  5.25600000E+05  6       1.00000000
  5.25600000E+05  6       1.00000000
  5.25600000E+05  6       1.00000000
  5.25600000E+05  6       1.00000000
  5.25600000E+05  6       1.00000000
  5.25600000E+05  6       1.00000000
  5.25600000E+05  6       1.00000000
  5.25600000E+05  6       1.00000000
  5.25600000E+05  6       1.00000000
  5.25600000E+05  6       1.00000000
  5.25600000E+05  6       1.00000000
  5.25600000E+05  6       1.00000000
  5.25600000E+05  6       1.00000000
  5.25600000E+05  6       1.00000000
  5.25600000E+05  6       1.00000000
  5.25600000E+05  6       1.00000000
  5.25600000E+05  6       1.00000000
  5.25600000E+05  6       1.00000000
  5.25600000E+05  6       1.00000000
  5.25600000E+05  6       1.00000000
END perioddata

