# File generated by Flopy version 3.10.0.dev1 on 02/06/2025 at 18:51:11.
BEGIN options
  SAVE_FLOWS
END options

BEGIN packages
  DIS6  flow.dis  dis
  NPF6  flow.npf  npf
  IC6  flow.ic  ic
  CHD6  flow.chd  chd_0
  OC6  flow.oc  oc
END packages

