# File generated by Flopy version 3.10.0.dev1 on 02/06/2025 at 18:51:18.
BEGIN options
  SORPTION  linear
END options

BEGIN griddata
  porosity
    CONSTANT       0.35000000
  bulk_density
    CONSTANT    1709.50000000
  distcoef
    CONSTANT  1.91663000E-04
END griddata

