# File generated by Flopy version 3.10.0.dev1 on 02/06/2025 at 18:51:18.
BEGIN options
  XT3D_OFF
END options

BEGIN griddata
  diffc
    CONSTANT  1.02882000E-06
  alh
    CONSTANT       0.00000000
  ath1
    CONSTANT       0.00000000
END griddata

