# File generated by Flopy version 3.10.0.dev1 on 02/06/2025 at 18:51:18.
BEGIN options
END options

BEGIN griddata
  strt  LAYERED
    INTERNAL  FACTOR  1.0
          10.00000000
    INTERNAL  FACTOR  1.0
          10.00000000
    INTERNAL  FACTOR  1.0
          10.00000000
    INTERNAL  FACTOR  1.0
          10.00000000
    INTERNAL  FACTOR  1.0
          10.00000000
    INTERNAL  FACTOR  1.0
          10.00000000
    INTERNAL  FACTOR  1.0
          10.00000000
    INTERNAL  FACTOR  1.0
          10.00000000
    INTERNAL  FACTOR  1.0
          10.00000000
    INTERNAL  FACTOR  1.0
          10.00000000
    INTERNAL  FACTOR  1.0
          10.00000000
    INTERNAL  FACTOR  1.0
          10.00000000
    INTERNAL  FACTOR  1.0
          10.00000000
    INTERNAL  FACTOR  1.0
          10.00000000
    INTERNAL  FACTOR  1.0
          10.00000000
    INTERNAL  FACTOR  1.0
          10.00000000
    INTERNAL  FACTOR  1.0
          10.00000000
    INTERNAL  FACTOR  1.0
          10.00000000
    INTERNAL  FACTOR  1.0
          10.00000000
    INTERNAL  FACTOR  1.0
          10.00000000
    INTERNAL  FACTOR  1.0
          10.00000000
    INTERNAL  FACTOR  1.0
          10.00000000
    INTERNAL  FACTOR  1.0
          10.00000000
    INTERNAL  FACTOR  1.0
          10.00000000
    INTERNAL  FACTOR  1.0
          10.00000000
    INTERNAL  FACTOR  1.0
          10.00000000
    INTERNAL  FACTOR  1.0
          10.00000000
    INTERNAL  FACTOR  1.0
          10.00000000
    INTERNAL  FACTOR  1.0
          10.00000000
    INTERNAL  FACTOR  1.0
          10.00000000
    INTERNAL  FACTOR  1.0
          10.00000000
    INTERNAL  FACTOR  1.0
          10.00000000
    INTERNAL  FACTOR  1.0
          10.00000000
    INTERNAL  FACTOR  1.0
          10.00000000
    INTERNAL  FACTOR  1.0
          10.00000000
    INTERNAL  FACTOR  1.0
          10.00000000
    INTERNAL  FACTOR  1.0
          10.00000000
    INTERNAL  FACTOR  1.0
          10.00000000
    INTERNAL  FACTOR  1.0
          10.00000000
    INTERNAL  FACTOR  1.0
          10.00000000
    INTERNAL  FACTOR  1.0
          10.00000000
    INTERNAL  FACTOR  1.0
          10.00000000
    INTERNAL  FACTOR  1.0
          10.00000000
    INTERNAL  FACTOR  1.0
          10.00000000
    INTERNAL  FACTOR  1.0
          10.00000000
    INTERNAL  FACTOR  1.0
          10.00000000
    INTERNAL  FACTOR  1.0
          10.00000000
    INTERNAL  FACTOR  1.0
          10.00000000
    INTERNAL  FACTOR  1.0
          10.00000000
    INTERNAL  FACTOR  1.0
          10.00000000
    INTERNAL  FACTOR  1.0
          10.00000000
    INTERNAL  FACTOR  1.0
          10.00000000
    INTERNAL  FACTOR  1.0
          10.00000000
    INTERNAL  FACTOR  1.0
          10.00000000
    INTERNAL  FACTOR  1.0
          10.00000000
    INTERNAL  FACTOR  1.0
          10.00000000
    INTERNAL  FACTOR  1.0
          10.00000000
    INTERNAL  FACTOR  1.0
          10.00000000
    INTERNAL  FACTOR  1.0
          10.00000000
    INTERNAL  FACTOR  1.0
          10.00000000
    INTERNAL  FACTOR  1.0
          10.00000000
    INTERNAL  FACTOR  1.0
          10.00000000
    INTERNAL  FACTOR  1.0
          10.00000000
    INTERNAL  FACTOR  1.0
          10.00000000
    INTERNAL  FACTOR  1.0
          10.00000000
    INTERNAL  FACTOR  1.0
          10.00000000
    INTERNAL  FACTOR  1.0
          10.00000000
    INTERNAL  FACTOR  1.0
          10.00000000
    INTERNAL  FACTOR  1.0
          10.00000000
    INTERNAL  FACTOR  1.0
          10.00000000
    INTERNAL  FACTOR  1.0
          10.00000000
    INTERNAL  FACTOR  1.0
          10.00000000
    INTERNAL  FACTOR  1.0
          10.00000000
    INTERNAL  FACTOR  1.0
          10.00000000
    INTERNAL  FACTOR  1.0
          10.00000000
    INTERNAL  FACTOR  1.0
          10.00000000
    INTERNAL  FACTOR  1.0
          10.00000000
    INTERNAL  FACTOR  1.0
          10.00000000
    INTERNAL  FACTOR  1.0
          10.00000000
    INTERNAL  FACTOR  1.0
          10.00000000
    INTERNAL  FACTOR  1.0
          10.00000000
    INTERNAL  FACTOR  1.0
          10.00000000
    INTERNAL  FACTOR  1.0
          10.00000000
    INTERNAL  FACTOR  1.0
          10.00000000
    INTERNAL  FACTOR  1.0
          10.00000000
    INTERNAL  FACTOR  1.0
          10.00000000
    INTERNAL  FACTOR  1.0
          10.00000000
    INTERNAL  FACTOR  1.0
          10.00000000
    INTERNAL  FACTOR  1.0
          10.00000000
    INTERNAL  FACTOR  1.0
          10.00000000
    INTERNAL  FACTOR  1.0
          10.00000000
    INTERNAL  FACTOR  1.0
          10.00000000
    INTERNAL  FACTOR  1.0
          10.00000000
    INTERNAL  FACTOR  1.0
          10.00000000
    INTERNAL  FACTOR  1.0
          10.00000000
    INTERNAL  FACTOR  1.0
          10.00000000
    INTERNAL  FACTOR  1.0
          10.00000000
    INTERNAL  FACTOR  1.0
          10.00000000
    INTERNAL  FACTOR  1.0
          10.00000000
    INTERNAL  FACTOR  1.0
          10.00000000
    INTERNAL  FACTOR  1.0
          10.00000000
    INTERNAL  FACTOR  1.0
          10.00000000
    INTERNAL  FACTOR  1.0
          10.00000000
    INTERNAL  FACTOR  1.0
          10.00000000
    INTERNAL  FACTOR  1.0
          10.00000000
    INTERNAL  FACTOR  1.0
          10.00000000
    INTERNAL  FACTOR  1.0
          10.00000000
    INTERNAL  FACTOR  1.0
          10.00000000
    INTERNAL  FACTOR  1.0
          10.00000000
    INTERNAL  FACTOR  1.0
          10.00000000
    INTERNAL  FACTOR  1.0
          10.00000000
    INTERNAL  FACTOR  1.0
          10.00000000
    INTERNAL  FACTOR  1.0
          10.00000000
    INTERNAL  FACTOR  1.0
          10.00000000
    INTERNAL  FACTOR  1.0
          10.00000000
    INTERNAL  FACTOR  1.0
          10.00000000
    INTERNAL  FACTOR  1.0
          10.00000000
    INTERNAL  FACTOR  1.0
          10.00000000
    INTERNAL  FACTOR  1.0
          10.00000000
    INTERNAL  FACTOR  1.0
          10.00000000
END griddata

