# File generated by Flopy version 3.10.0.dev1 on 02/06/2025 at 18:51:23.
BEGIN options
  CONTINUE
END options

BEGIN timing
  TDIS6  trans.tdis
END timing

BEGIN models
  gwt6  trans.nam  trans
END models

BEGIN exchanges
END exchanges

BEGIN solutiongroup  1
  ims6  trans.ims  trans
END solutiongroup  1

