# File generated by Flopy version 3.10.0.dev1 on 02/06/2025 at 18:51:24.
BEGIN options
  CONCENTRATION  FILEOUT  trans.ucn
END options

BEGIN period  1
  SAVE  CONCENTRATION  LAST
  PRINT  BUDGET  ALL
END period  1

