# File generated by Flopy version 3.10.0.dev1 on 02/06/2025 at 18:51:23.
BEGIN options
END options

BEGIN packages
  DISV6  trans.disv  disv
  IC6  trans.ic  ic
  ADV6  trans.adv  adv
  DSP6  trans.dsp  dsp
  MST6  trans.mst  mst
  FMI6  trans.fmi  fmi
  SSM6  trans.ssm  ssm
  OC6  trans.oc  oc
END packages

