# File generated by Flopy version 3.10.0.dev1 on 02/06/2025 at 18:51:24.
BEGIN options
END options

BEGIN griddata
  porosity  LAYERED
    INTERNAL  FACTOR  1.0
           0.20000000       0.20000000       0.20000000       0.20000000       0.20000000       0.20000000       0.20000000       0.20000000       0.20000000       0.20000000       0.20000000       0.20000000       0.20000000       0.20000000       0.20000000       0.20000000       0.20000000       0.20000000       0.20000000       0.20000000
           0.20000000       0.20000000       0.20000000       0.20000000       0.20000000       0.20000000       0.20000000       0.20000000       0.20000000       0.20000000       0.20000000       0.20000000       0.20000000       0.20000000       0.20000000       0.20000000       0.20000000       0.20000000       0.20000000       0.20000000
           0.20000000       0.20000000       0.20000000       0.40000000       0.40000000       0.40000000       0.40000000       0.40000000       0.40000000       0.40000000       0.40000000       0.40000000       0.40000000       0.40000000       0.40000000       0.40000000       0.40000000       0.40000000       0.40000000       0.40000000
           0.40000000       0.40000000       0.40000000       0.40000000       0.40000000       0.40000000       0.40000000       0.40000000       0.40000000       0.40000000       0.40000000       0.40000000       0.40000000       0.40000000       0.40000000       0.40000000       0.40000000       0.40000000       0.40000000       0.40000000
           0.40000000       0.40000000       0.40000000       0.40000000       0.40000000       0.40000000       0.40000000       0.40000000       0.40000000       0.40000000       0.40000000       0.40000000       0.20000000       0.20000000       0.20000000       0.20000000       0.20000000       0.20000000       0.20000000       0.20000000
           0.20000000       0.20000000       0.20000000       0.20000000       0.20000000       0.20000000       0.20000000       0.20000000       0.20000000       0.20000000       0.20000000       0.20000000       0.20000000       0.20000000       0.20000000       0.20000000       0.20000000       0.20000000       0.20000000       0.20000000
           0.20000000       0.20000000       0.20000000       0.20000000       0.20000000       0.20000000       0.20000000       0.20000000       0.20000000       0.20000000       0.20000000       0.20000000       0.20000000       0.20000000       0.20000000       0.20000000       0.20000000       0.20000000       0.20000000       0.20000000
           0.20000000       0.20000000       0.20000000       0.20000000       0.20000000       0.20000000       0.20000000       0.20000000       0.20000000       0.20000000       0.20000000       0.20000000       0.20000000       0.20000000       0.20000000       0.20000000       0.20000000       0.20000000       0.20000000       0.20000000
           0.20000000       0.20000000       0.20000000       0.20000000       0.20000000       0.20000000       0.20000000       0.20000000       0.20000000       0.20000000       0.20000000       0.20000000       0.20000000       0.20000000       0.20000000       0.20000000       0.20000000       0.20000000       0.20000000       0.20000000
           0.20000000       0.20000000       0.20000000       0.20000000       0.20000000       0.20000000       0.20000000       0.20000000       0.20000000       0.20000000       0.20000000       0.20000000       0.20000000       0.20000000       0.20000000       0.20000000       0.20000000       0.20000000       0.20000000       0.20000000
           0.20000000       0.20000000       0.20000000       0.20000000       0.20000000       0.20000000       0.20000000       0.20000000       0.20000000       0.20000000       0.20000000       0.20000000       0.20000000       0.20000000       0.20000000       0.20000000       0.20000000       0.20000000       0.20000000       0.20000000
           0.20000000       0.20000000       0.20000000       0.20000000       0.20000000       0.20000000       0.20000000       0.20000000       0.20000000       0.20000000       0.20000000       0.20000000       0.20000000       0.20000000       0.20000000       0.20000000       0.20000000       0.20000000       0.20000000       0.20000000
           0.20000000       0.20000000       0.20000000       0.20000000       0.20000000       0.20000000       0.20000000       0.20000000       0.20000000       0.20000000       0.20000000       0.20000000       0.20000000       0.20000000       0.20000000       0.20000000       0.20000000       0.20000000       0.20000000       0.20000000
           0.20000000       0.20000000       0.20000000       0.20000000       0.20000000       0.20000000       0.20000000       0.20000000       0.20000000       0.20000000       0.20000000       0.20000000       0.20000000       0.20000000       0.20000000       0.20000000       0.20000000       0.20000000       0.20000000       0.20000000
           0.20000000       0.20000000       0.20000000       0.20000000       0.20000000       0.20000000       0.20000000       0.20000000       0.20000000       0.20000000       0.20000000       0.20000000       0.20000000       0.20000000       0.20000000       0.20000000       0.20000000       0.20000000       0.20000000       0.20000000
           0.20000000       0.20000000       0.20000000       0.20000000       0.20000000       0.20000000       0.20000000       0.20000000       0.20000000       0.20000000       0.20000000       0.20000000       0.20000000       0.20000000       0.20000000       0.20000000       0.20000000       0.20000000       0.20000000       0.20000000
           0.20000000       0.20000000       0.20000000       0.20000000       0.20000000       0.20000000       0.20000000       0.20000000       0.20000000       0.20000000       0.20000000       0.20000000       0.20000000       0.20000000       0.20000000       0.20000000       0.20000000       0.20000000       0.20000000       0.20000000
           0.20000000       0.20000000       0.20000000       0.20000000       0.20000000       0.20000000       0.20000000       0.20000000       0.20000000       0.20000000       0.20000000       0.20000000       0.20000000       0.20000000       0.20000000       0.20000000       0.20000000       0.20000000       0.20000000       0.20000000
           0.20000000       0.20000000       0.20000000       0.20000000       0.20000000       0.20000000       0.20000000       0.20000000       0.20000000       0.20000000       0.20000000       0.20000000       0.20000000       0.20000000       0.20000000       0.20000000       0.20000000       0.20000000       0.20000000       0.20000000
           0.20000000       0.20000000       0.20000000       0.20000000       0.20000000       0.20000000       0.20000000       0.20000000       0.20000000       0.20000000       0.20000000       0.20000000       0.20000000       0.20000000       0.20000000       0.20000000       0.20000000       0.20000000       0.20000000       0.20000000
           0.20000000       0.20000000       0.20000000       0.20000000       0.20000000       0.20000000       0.20000000       0.20000000       0.20000000       0.20000000       0.20000000       0.20000000       0.20000000       0.20000000       0.40000000       0.40000000       0.40000000       0.40000000       0.40000000       0.40000000
           0.40000000       0.40000000       0.40000000       0.40000000       0.40000000       0.40000000       0.40000000       0.40000000       0.40000000       0.40000000       0.40000000       0.40000000       0.40000000       0.40000000       0.40000000       0.40000000       0.40000000       0.40000000       0.40000000       0.40000000
           0.40000000       0.40000000       0.40000000       0.40000000       0.40000000       0.40000000       0.40000000       0.40000000       0.40000000       0.40000000       0.40000000       0.40000000       0.40000000       0.40000000       0.40000000       0.40000000       0.40000000       0.40000000       0.40000000       0.40000000
           0.40000000       0.40000000       0.40000000       0.40000000       0.40000000       0.40000000       0.40000000       0.40000000       0.40000000       0.40000000       0.40000000       0.40000000       0.40000000       0.40000000       0.40000000       0.40000000       0.40000000       0.40000000       0.40000000       0.40000000
           0.40000000       0.40000000       0.40000000       0.40000000       0.40000000       0.40000000       0.40000000       0.40000000       0.40000000       0.40000000       0.40000000       0.40000000       0.40000000       0.40000000       0.40000000       0.40000000       0.40000000       0.40000000       0.40000000       0.40000000
           0.40000000       0.40000000       0.40000000       0.40000000       0.40000000       0.40000000       0.40000000       0.40000000       0.40000000       0.40000000       0.40000000       0.40000000       0.40000000       0.40000000       0.40000000       0.40000000       0.40000000       0.40000000       0.40000000       0.40000000
           0.40000000       0.40000000       0.40000000       0.40000000       0.40000000       0.40000000       0.40000000       0.40000000       0.40000000       0.40000000       0.40000000       0.40000000       0.40000000       0.40000000       0.40000000       0.40000000       0.40000000       0.40000000       0.40000000       0.40000000
           0.40000000       0.40000000       0.40000000       0.40000000       0.40000000       0.40000000       0.40000000       0.40000000       0.40000000       0.40000000       0.40000000       0.40000000       0.40000000       0.40000000       0.40000000       0.40000000       0.40000000       0.40000000       0.40000000       0.40000000
           0.40000000       0.40000000       0.40000000       0.40000000       0.40000000       0.40000000       0.40000000       0.40000000       0.40000000       0.40000000       0.40000000       0.40000000       0.40000000       0.40000000       0.40000000       0.40000000       0.40000000       0.40000000       0.40000000       0.40000000
           0.40000000       0.40000000       0.40000000       0.40000000       0.40000000       0.40000000       0.40000000       0.40000000       0.40000000       0.40000000       0.40000000       0.40000000       0.40000000       0.40000000       0.40000000       0.40000000       0.40000000       0.40000000       0.40000000       0.40000000
           0.40000000       0.40000000       0.40000000       0.40000000       0.40000000       0.40000000       0.40000000       0.40000000       0.40000000       0.40000000       0.40000000       0.40000000       0.40000000       0.40000000       0.40000000       0.40000000       0.40000000       0.40000000       0.40000000       0.40000000
           0.40000000       0.40000000       0.40000000       0.40000000       0.40000000       0.40000000       0.40000000       0.40000000       0.40000000       0.40000000       0.40000000       0.40000000       0.40000000       0.40000000       0.40000000       0.40000000       0.40000000       0.40000000       0.40000000       0.40000000
           0.40000000       0.40000000       0.40000000       0.40000000       0.40000000       0.40000000       0.40000000       0.40000000       0.40000000       0.40000000       0.40000000       0.40000000       0.40000000       0.40000000       0.40000000       0.40000000       0.40000000       0.40000000       0.40000000       0.40000000
           0.40000000       0.20000000       0.20000000       0.20000000       0.20000000       0.20000000       0.20000000       0.20000000       0.20000000       0.20000000       0.20000000       0.20000000       0.20000000       0.20000000       0.20000000       0.20000000       0.20000000       0.20000000       0.20000000       0.20000000
           0.20000000       0.20000000       0.20000000       0.20000000       0.20000000       0.20000000       0.20000000       0.20000000       0.20000000       0.20000000       0.20000000       0.20000000       0.20000000       0.20000000       0.20000000       0.20000000       0.20000000       0.20000000       0.20000000       0.20000000
           0.20000000       0.20000000       0.20000000       0.20000000       0.20000000       0.20000000       0.20000000       0.20000000       0.20000000       0.20000000       0.20000000       0.20000000       0.20000000       0.20000000       0.20000000       0.20000000       0.20000000       0.20000000       0.20000000       0.20000000
           0.20000000       0.20000000       0.20000000       0.20000000       0.20000000       0.20000000       0.20000000       0.20000000       0.20000000       0.20000000       0.20000000       0.20000000       0.20000000       0.20000000       0.20000000       0.20000000       0.20000000       0.20000000       0.20000000       0.20000000
           0.20000000       0.20000000       0.20000000       0.20000000       0.20000000       0.20000000       0.20000000       0.20000000       0.20000000       0.20000000       0.20000000       0.20000000       0.20000000       0.20000000       0.20000000       0.20000000       0.20000000       0.20000000       0.20000000       0.20000000
           0.20000000       0.20000000       0.20000000       0.20000000       0.20000000       0.20000000       0.20000000       0.20000000       0.20000000       0.20000000       0.20000000       0.20000000       0.20000000       0.20000000       0.20000000       0.20000000       0.20000000       0.20000000       0.20000000       0.20000000
           0.20000000       0.20000000       0.20000000       0.20000000       0.20000000       0.20000000       0.20000000       0.20000000       0.20000000       0.20000000       0.20000000       0.20000000       0.20000000       0.20000000       0.20000000       0.20000000       0.20000000       0.20000000       0.20000000       0.20000000
           0.20000000       0.20000000       0.20000000       0.20000000       0.20000000       0.20000000       0.20000000       0.20000000       0.20000000       0.20000000       0.20000000       0.20000000       0.20000000       0.20000000       0.20000000       0.20000000       0.20000000       0.20000000       0.20000000       0.20000000
           0.20000000       0.20000000       0.20000000       0.20000000       0.20000000       0.20000000       0.20000000       0.20000000       0.20000000       0.20000000       0.20000000       0.20000000       0.20000000       0.20000000       0.20000000       0.20000000       0.20000000       0.20000000       0.20000000       0.20000000
           0.20000000       0.20000000       0.40000000       0.40000000       0.40000000       0.40000000       0.40000000       0.40000000       0.40000000       0.40000000       0.40000000       0.40000000       0.40000000       0.40000000       0.40000000       0.40000000       0.40000000       0.40000000       0.40000000       0.40000000
           0.40000000       0.40000000       0.40000000       0.40000000       0.40000000       0.40000000       0.40000000       0.40000000       0.40000000       0.40000000       0.40000000       0.40000000       0.40000000       0.40000000       0.40000000       0.40000000       0.40000000       0.40000000       0.40000000       0.40000000
           0.40000000       0.40000000       0.40000000       0.40000000       0.40000000       0.40000000       0.40000000       0.40000000       0.40000000       0.40000000       0.40000000       0.40000000       0.40000000       0.40000000       0.40000000       0.40000000       0.40000000       0.40000000       0.40000000       0.40000000
           0.40000000       0.40000000       0.40000000       0.40000000       0.40000000       0.40000000       0.40000000       0.40000000       0.40000000       0.40000000       0.40000000       0.40000000       0.40000000       0.40000000       0.40000000       0.40000000       0.40000000       0.40000000       0.40000000       0.40000000
           0.40000000       0.40000000       0.40000000       0.40000000       0.40000000       0.40000000       0.40000000       0.40000000       0.40000000       0.40000000       0.40000000       0.40000000       0.40000000       0.40000000       0.40000000       0.40000000       0.40000000       0.40000000       0.40000000       0.40000000
           0.40000000       0.40000000       0.40000000       0.40000000       0.40000000       0.40000000       0.40000000       0.40000000       0.40000000       0.40000000       0.40000000       0.40000000       0.40000000       0.40000000       0.40000000       0.20000000       0.20000000       0.40000000       0.40000000       0.40000000
           0.40000000       0.40000000       0.40000000       0.40000000       0.40000000       0.40000000       0.40000000       0.40000000       0.40000000       0.40000000       0.20000000       0.40000000       0.40000000       0.40000000       0.40000000       0.40000000       0.40000000       0.40000000       0.40000000       0.40000000
           0.40000000       0.40000000       0.40000000       0.40000000       0.40000000       0.40000000       0.40000000       0.40000000       0.40000000       0.40000000       0.40000000       0.20000000       0.20000000       0.40000000       0.20000000       0.40000000       0.40000000       0.40000000       0.40000000       0.40000000
           0.40000000       0.40000000       0.40000000       0.40000000       0.40000000       0.40000000       0.20000000       0.20000000       0.20000000       0.20000000       0.20000000       0.40000000       0.40000000       0.40000000       0.40000000       0.20000000       0.40000000       0.40000000       0.40000000       0.40000000
           0.40000000       0.40000000       0.20000000       0.20000000       0.20000000       0.20000000       0.20000000       0.40000000       0.40000000       0.40000000       0.20000000       0.20000000       0.20000000       0.40000000       0.40000000       0.40000000       0.40000000       0.40000000       0.40000000       0.40000000
           0.40000000       0.40000000       0.40000000       0.20000000       0.40000000       0.40000000       0.40000000       0.40000000       0.40000000       0.40000000       0.40000000       0.40000000       0.40000000       0.40000000       0.40000000       0.40000000       0.40000000       0.20000000       0.20000000       0.20000000
           0.40000000       0.40000000       0.40000000       0.40000000       0.40000000       0.20000000       0.20000000       0.20000000       0.20000000       0.20000000       0.40000000       0.40000000       0.40000000       0.40000000       0.40000000       0.40000000       0.40000000       0.40000000       0.40000000       0.40000000
           0.40000000       0.40000000       0.40000000       0.40000000       0.40000000       0.20000000       0.40000000       0.40000000       0.40000000       0.40000000       0.40000000       0.40000000       0.40000000       0.40000000       0.40000000       0.40000000       0.40000000       0.40000000       0.40000000       0.40000000
           0.40000000       0.20000000       0.40000000       0.40000000       0.40000000       0.40000000       0.40000000       0.40000000       0.40000000       0.40000000       0.40000000       0.40000000       0.40000000       0.40000000       0.40000000       0.40000000       0.40000000       0.20000000       0.40000000       0.40000000
           0.40000000       0.40000000       0.40000000       0.40000000       0.40000000       0.40000000       0.40000000       0.40000000       0.40000000       0.40000000       0.40000000       0.40000000       0.40000000       0.40000000       0.40000000       0.40000000       0.20000000       0.40000000       0.40000000       0.20000000
           0.20000000       0.20000000       0.20000000       0.20000000       0.20000000       0.20000000       0.20000000       0.20000000       0.20000000       0.20000000       0.20000000       0.20000000       0.20000000       0.20000000       0.20000000       0.20000000       0.20000000       0.20000000       0.20000000       0.20000000
           0.40000000       0.40000000       0.40000000       0.40000000       0.40000000       0.40000000       0.40000000       0.40000000       0.40000000       0.40000000       0.40000000       0.40000000       0.40000000       0.40000000       0.40000000       0.40000000       0.40000000       0.40000000       0.20000000       0.40000000
           0.40000000       0.40000000       0.40000000       0.40000000       0.40000000       0.40000000       0.20000000       0.40000000       0.40000000       0.40000000       0.40000000       0.40000000       0.40000000       0.40000000       0.40000000       0.40000000       0.20000000       0.20000000       0.20000000       0.20000000
           0.20000000       0.20000000       0.20000000       0.20000000       0.20000000       0.20000000       0.20000000       0.20000000       0.20000000       0.20000000       0.20000000       0.20000000       0.20000000       0.20000000       0.20000000       0.20000000       0.20000000       0.20000000       0.20000000       0.20000000
           0.20000000       0.20000000       0.20000000       0.20000000       0.20000000       0.20000000       0.20000000       0.20000000       0.20000000       0.20000000       0.20000000       0.20000000       0.20000000       0.20000000       0.20000000       0.20000000       0.20000000       0.20000000       0.20000000       0.20000000
           0.40000000       0.40000000       0.40000000       0.40000000       0.40000000       0.40000000       0.40000000       0.40000000       0.40000000       0.40000000       0.40000000       0.40000000       0.40000000       0.40000000       0.40000000       0.40000000       0.40000000       0.40000000       0.40000000       0.40000000
           0.40000000       0.40000000       0.40000000       0.40000000       0.40000000       0.40000000       0.40000000       0.40000000       0.40000000       0.40000000       0.40000000       0.40000000       0.40000000       0.20000000       0.20000000       0.20000000       0.20000000       0.20000000       0.20000000       0.20000000
           0.20000000       0.20000000       0.20000000       0.20000000       0.20000000       0.20000000       0.20000000       0.20000000       0.20000000       0.20000000       0.20000000       0.20000000       0.20000000       0.20000000       0.20000000       0.20000000       0.20000000       0.20000000       0.20000000       0.20000000
           0.20000000       0.20000000       0.20000000       0.20000000       0.20000000       0.40000000       0.40000000       0.40000000       0.40000000       0.40000000       0.40000000       0.40000000       0.40000000       0.40000000       0.40000000       0.40000000       0.40000000       0.40000000       0.40000000       0.40000000
           0.40000000       0.40000000       0.40000000       0.40000000       0.40000000       0.40000000       0.20000000       0.20000000       0.20000000       0.20000000       0.20000000       0.20000000       0.20000000       0.20000000       0.20000000       0.20000000       0.20000000       0.20000000       0.20000000       0.20000000
           0.20000000       0.20000000       0.40000000       0.40000000       0.40000000       0.40000000       0.40000000       0.40000000       0.40000000       0.40000000       0.40000000       0.40000000       0.40000000       0.40000000       0.40000000       0.20000000       0.20000000       0.20000000       0.20000000       0.20000000
           0.20000000       0.20000000       0.20000000       0.20000000       0.40000000       0.40000000       0.40000000       0.40000000       0.20000000       0.20000000       0.20000000       0.40000000       0.40000000       0.40000000       0.40000000       0.40000000       0.40000000       0.40000000       0.20000000       0.20000000
           0.20000000       0.40000000       0.40000000       0.40000000       0.40000000       0.40000000       0.20000000       0.20000000       0.40000000       0.40000000       0.40000000       0.40000000       0.40000000       0.40000000       0.20000000       0.20000000       0.20000000       0.20000000       0.20000000       0.20000000
           0.20000000       0.20000000       0.20000000       0.20000000       0.20000000       0.20000000       0.20000000       0.20000000       0.20000000       0.20000000       0.20000000       0.20000000       0.40000000       0.40000000       0.40000000       0.40000000       0.40000000       0.40000000       0.40000000       0.40000000
           0.40000000       0.40000000       0.20000000       0.20000000       0.20000000       0.20000000       0.40000000       0.20000000       0.20000000       0.20000000       0.20000000       0.20000000       0.20000000       0.40000000       0.40000000       0.40000000       0.40000000       0.20000000       0.20000000       0.40000000
           0.40000000       0.40000000       0.40000000       0.40000000       0.40000000       0.40000000       0.20000000       0.20000000       0.20000000       0.20000000       0.20000000       0.20000000       0.20000000       0.20000000       0.20000000       0.20000000       0.20000000       0.20000000       0.40000000       0.40000000
           0.40000000       0.40000000       0.20000000       0.20000000       0.20000000       0.40000000       0.20000000       0.20000000       0.20000000       0.20000000       0.40000000       0.40000000       0.40000000       0.20000000       0.40000000       0.40000000       0.40000000       0.20000000       0.40000000       0.40000000
           0.20000000       0.20000000       0.40000000       0.20000000       0.20000000       0.20000000       0.20000000       0.40000000       0.40000000       0.40000000       0.20000000       0.20000000       0.20000000       0.20000000       0.20000000       0.20000000       0.20000000       0.20000000       0.20000000       0.20000000
           0.20000000       0.20000000       0.20000000       0.20000000       0.20000000       0.20000000       0.20000000       0.20000000       0.20000000       0.20000000       0.20000000       0.20000000       0.20000000       0.20000000       0.20000000       0.20000000       0.20000000       0.20000000       0.20000000       0.20000000
           0.20000000       0.20000000       0.20000000       0.20000000       0.20000000       0.20000000       0.20000000       0.20000000       0.20000000       0.20000000       0.20000000       0.20000000       0.20000000       0.20000000       0.20000000       0.20000000       0.20000000       0.20000000       0.20000000       0.20000000
           0.20000000       0.20000000       0.20000000       0.20000000       0.20000000       0.20000000       0.20000000       0.20000000       0.20000000       0.20000000       0.20000000       0.40000000       0.40000000       0.40000000       0.40000000       0.40000000       0.40000000       0.40000000       0.40000000       0.40000000
           0.40000000       0.40000000       0.20000000       0.40000000       0.40000000       0.40000000       0.20000000       0.20000000       0.20000000       0.20000000       0.20000000       0.20000000       0.20000000       0.20000000       0.20000000       0.40000000       0.40000000       0.40000000       0.20000000       0.20000000
           0.20000000       0.20000000       0.20000000       0.20000000       0.40000000       0.40000000       0.40000000       0.40000000       0.40000000       0.40000000       0.40000000       0.20000000       0.20000000       0.20000000       0.20000000       0.40000000       0.40000000       0.40000000       0.40000000       0.40000000
           0.40000000       0.20000000       0.20000000       0.20000000       0.40000000       0.40000000       0.40000000       0.40000000       0.20000000       0.20000000       0.20000000       0.20000000       0.20000000       0.20000000       0.20000000       0.20000000       0.20000000       0.20000000       0.20000000       0.20000000
           0.20000000       0.20000000       0.20000000       0.20000000       0.20000000       0.20000000       0.20000000       0.20000000       0.20000000       0.20000000       0.20000000       0.20000000       0.20000000       0.20000000       0.20000000       0.20000000       0.20000000       0.40000000       0.40000000       0.40000000
           0.40000000       0.40000000       0.40000000       0.40000000       0.40000000       0.20000000       0.20000000       0.20000000       0.20000000       0.40000000       0.40000000       0.20000000       0.20000000       0.20000000       0.20000000       0.20000000       0.40000000       0.40000000       0.40000000       0.40000000
           0.40000000       0.40000000       0.20000000       0.40000000       0.20000000       0.20000000       0.20000000       0.20000000       0.20000000       0.20000000       0.20000000       0.20000000       0.20000000       0.20000000       0.20000000       0.20000000       0.20000000       0.20000000       0.20000000       0.20000000
           0.20000000       0.20000000       0.20000000       0.20000000       0.20000000       0.20000000       0.20000000       0.20000000       0.20000000       0.20000000       0.20000000       0.20000000       0.20000000       0.20000000       0.20000000       0.20000000       0.20000000       0.20000000       0.20000000       0.20000000
           0.20000000       0.20000000       0.20000000       0.20000000       0.20000000       0.20000000       0.20000000       0.20000000       0.20000000       0.20000000       0.20000000       0.20000000       0.20000000       0.20000000       0.20000000       0.20000000       0.20000000       0.20000000       0.20000000       0.20000000