# File generated by Flopy version 3.10.0.dev1 on 02/06/2025 at 18:51:23.
BEGIN options
  TIME_UNITS  days
END options

BEGIN dimensions
  NPER  1
END dimensions

BEGIN perioddata
   10957.50000000  60       1.00000000
END perioddata

