# File generated by Flopy version 3.10.0.dev1 on 02/06/2025 at 18:51:24.
BEGIN options
END options

BEGIN griddata
  diffc
    CONSTANT       0.00000000
  alh
    CONSTANT      75.00000000
  ath1
    CONSTANT       7.50000000
END griddata

