# File generated by Flopy version 3.10.0.dev1 on 02/06/2025 at 18:50:03.
BEGIN options
END options

BEGIN timing
  TDIS6  ex-gwf-lgrv-gc.tdis
END timing

BEGIN models
  gwf6  parent.nam  parent
END models

BEGIN exchanges
END exchanges

BEGIN solutiongroup  1
  ims6  ex-gwf-lgrv-gc.ims  parent
END solutiongroup  1

