# File generated by Flopy version 3.10.0.dev1 on 02/06/2025 at 18:49:37.
BEGIN options
  SAVE_FLOWS
END options

BEGIN packages
  DIS6  ex-gwf-bump.dis  dis
  NPF6  ex-gwf-bump.npf  npf
  IC6  ex-gwf-bump.ic  ic
  CHD6  ex-gwf-bump.chd  chd_0
  OC6  ex-gwf-bump.oc  oc
END packages

