# File generated by Flopy version 3.10.0.dev1 on 02/06/2025 at 18:49:37.
BEGIN options
  REWET  wetfct       1.00000000  iwetit  1  ihdwet  0
  SAVE_SPECIFIC_DISCHARGE
END options

BEGIN griddata
  icelltype
    CONSTANT  1
  k
    CONSTANT       1.00000000
  wetdry
    CONSTANT       2.00000000
END griddata

