# File generated by Flopy version 3.10.0.dev1 on 02/06/2025 at 18:50:30.
BEGIN options
  XT3D_OFF
END options

BEGIN griddata
  diffc
    CONSTANT       0.57024000
END griddata

