# File generated by Flopy version 3.10.0.dev1 on 02/06/2025 at 18:50:37.
BEGIN options
END options

BEGIN griddata
  alh
    CONSTANT       0.60000000
  ath1
    CONSTANT       0.03000000
  ath2
    CONSTANT       0.00600000
END griddata

