# File generated by Flopy version 3.10.0.dev1 on 02/06/2025 at 18:50:37.
BEGIN options
END options

BEGIN dimensions
  MAXBOUND  1
END dimensions

BEGIN period  1
  1 652       2.50000000
END period  1

