# File generated by Flopy version 3.4.1 on 10/02/2023 at 10:59:00.
BEGIN options
  SAVE_FLOWS
  SAVE_SPECIFIC_DISCHARGE
END options

BEGIN griddata
  icelltype
    CONSTANT  0
  k
    CONSTANT       0.50000000
  k33
    CONSTANT       0.10000000
END griddata

