# File generated by Flopy version 3.10.0.dev1 on 02/06/2025 at 18:50:12.
BEGIN options
  PRINT_OPTION  summary
  COMPLEXITY  complex
  NO_PTC  ALL
END options

BEGIN nonlinear
  OUTER_DVCLOSE  1.00000000E-06
  OUTER_MAXIMUM  500
END nonlinear

BEGIN linear
  INNER_MAXIMUM  100
  INNER_DVCLOSE  1.00000000E-06
  inner_rclose    1000.00000000
END linear

