# File generated by Flopy version 3.4.1 on 10/02/2023 at 11:01:50.
BEGIN options
  XT3D_OFF
END options

BEGIN griddata
  alh
    CONSTANT       1.00000000
  ath1
    CONSTANT       1.00000000
END griddata

