# File generated by Flopy version 3.4.1 on 10/02/2023 at 11:01:50.
BEGIN griddata
  strt
    CONSTANT       0.00000000
END griddata

