# File generated by Flopy version 3.10.0.dev1 on 02/06/2025 at 18:50:32.
BEGIN options
  BUDGET  FILEOUT  trans.cbc
  CONCENTRATION  FILEOUT  trans.ucn
  CONCENTRATION  PRINT_FORMAT  COLUMNS  400  WIDTH  15  DIGITS  6  GENERAL
END options

BEGIN period  1
  SAVE  CONCENTRATION  STEPS  10
  SAVE  CONCENTRATION  LAST
  SAVE  CONCENTRATION  FREQUENCY  10
  PRINT  CONCENTRATION  LAST
  PRINT  BUDGET  ALL
END period  1

BEGIN period  2
  SAVE  CONCENTRATION  STEPS  27  227
  SAVE  CONCENTRATION  LAST
  SAVE  CONCENTRATION  FREQUENCY  10
END period  2

