# File generated by Flopy version 3.10.0.dev1 on 02/06/2025 at 18:50:32.
BEGIN options
  DIGITS  10
  PRINT_INPUT
END options

BEGIN continuous  FILEOUT  trans.obs.csv
  obs1  CONCENTRATION  49 1 119
  obs2  CONCENTRATION  77 1 359
END continuous  FILEOUT  trans.obs.csv

