# File generated by Flopy version 3.10.0.dev1 on 02/06/2025 at 18:50:32.
BEGIN options
  FLOW_IMBALANCE_CORRECTION
END options

BEGIN packagedata
  GWFHEAD  FILEIN  ../mf6gwf/flow.hds
  GWFBUDGET  FILEIN  ../mf6gwf/flow.bud
END packagedata

