# File generated by Flopy version 3.10.0.dev1 on 02/06/2025 at 18:50:13.
BEGIN options
END options

BEGIN dimensions
  MAXBOUND  3
END dimensions

BEGIN period  1
  1 46 80 2.40000000E+01
  1 47 80 2.40000000E+01
  1 48 80 2.40000000E+01
END period  1

