# File generated by Flopy version 3.10.0.dev1 on 02/06/2025 at 18:50:13.
BEGIN options
END options

BEGIN timing
  TDIS6  ex-gwf-nwt-p03.tdis
END timing

BEGIN models
  gwf6  ex-gwf-nwt-p03.nam  ex-gwf-nwt-p03
END models

BEGIN exchanges
END exchanges

BEGIN solutiongroup  1
  ims6  ex-gwf-nwt-p03.ims  ex-gwf-nwt-p03
END solutiongroup  1

