# File generated by Flopy version 3.10.0.dev1 on 02/06/2025 at 18:50:42.
BEGIN options
  BUDGET  FILEOUT  gwf-p04-mf6.bud
  HEAD  FILEOUT  gwf-p04-mf6.hds
  HEAD  PRINT_FORMAT  COLUMNS  10  WIDTH  15  DIGITS  6  GENERAL
END options

BEGIN period  1
  SAVE  HEAD  LAST
  SAVE  BUDGET  LAST
  PRINT  HEAD  LAST
  PRINT  BUDGET  LAST
END period  1

