# File generated by Flopy version 3.10.0.dev1 on 02/06/2025 at 18:50:42.
BEGIN options
END options

BEGIN sources
  WEL-1  AUX  CONCENTRATION
END sources

