# File generated by Flopy version 3.10.0.dev1 on 02/06/2025 at 18:51:01.
BEGIN options
  DENSEREF       0.00106500
END options

BEGIN dimensions
  NRHOSPECIES  1
END dimensions

BEGIN packagedata
  1       0.64600000       0.00000000  trans  concentration
END packagedata

