# File generated by Flopy version 3.10.0.dev1 on 02/06/2025 at 18:51:01.
BEGIN options
END options

BEGIN griddata
  strt
    CONSTANT      75.00000000
END griddata

