# File generated by Flopy version 3.10.0.dev1 on 02/06/2025 at 18:51:01.
BEGIN options
END options

BEGIN griddata
  iconvert
    CONSTANT  0
  ss
    CONSTANT  3.80000000E-10
  sy
    CONSTANT       0.15000000
END griddata

