# File generated by Flopy version 3.10.0.dev1 on 02/06/2025 at 18:51:01.
BEGIN options
  SAVE_SPECIFIC_DISCHARGE
END options

BEGIN griddata
  icelltype
    CONSTANT  0
  k
    CONSTANT       3.05000000
END griddata

