# File generated by Flopy version 3.10.0.dev1 on 02/06/2025 at 18:51:01.
BEGIN options
END options

BEGIN dimensions
  MAXBOUND  67
END dimensions

BEGIN period  1
  1 1 1  1.09961261E-04
  1 1 2  1.09928472E-04
  1 1 3  1.09886266E-04
  1 1 4  1.09935381E-04
  1 1 5  1.10059312E-04
  1 1 6  1.10016615E-04
  1 1 7  1.10110834E-04
  1 1 8  1.09916066E-04
  1 1 9  1.09896802E-04
  1 1 10  1.09968895E-04
  1 1 11  1.10125785E-04
  1 1 12  1.09972185E-04
  1 1 13  1.09965540E-04
  1 1 14  1.10086499E-04
  1 1 15  1.10069905E-04
  1 1 16  1.10023764E-04
  1 1 17  1.09958859E-04
  1 1 18  1.10096268E-04
  1 1 19  1.09885362E-04
  1 1 20  1.09997956E-04
  1 1 21  1.09923394E-04
  1 1 22  1.10058880E-04
  1 1 23  1.10049855E-04
  1 1 24  1.09972824E-04
  1 1 25  1.09877284E-04
  1 1 26  1.10125262E-04
  1 1 27  1.10119798E-04
  1 1 28  1.09946118E-04
  1 1 29  1.09933031E-04
  1 1 30  1.10092974E-04
  1 1 31  1.10018396E-04
  1 1 32  1.10039202E-04
  1 1 33  1.10099351E-04
  1 1 34  1.10029533E-04
  1 1 35  1.09949034E-04
  1 1 36  1.10076907E-04
  1 1 37  1.09958681E-04
  1 1 38  1.10102846E-04
  1 1 39  1.10074829E-04
  1 1 40  1.09921329E-04
  1 1 41  1.10023095E-04
  1 1 42  1.10101211E-04
  1 1 43  1.10045348E-04
  1 1 44  1.10073058E-04
  1 1 45  1.10079929E-04
  1 1 46  1.10089767E-04
  1 1 47  1.09956578E-04
  1 1 48  1.09876476E-04
  1 1 49  1.09971079E-04
  1 1 50  1.09914703E-04
  1 1 51  1.09989489E-04
  1 1 52  1.10064015E-04
  1 1 53  1.09908064E-04
  1 1 54  1.10035636E-04
  1 1 55  1.10095602E-04
  1 1 56  1.10044165E-04
  1 1 57  1.10057737E-04
  1 1 58  1.09926480E-04
  1 1 59  1.10122807E-04
  1 1 60  1.09908413E-04
  1 1 61  1.10007655E-04
  1 1 62  1.10004072E-04
  1 1 63  1.09981177E-04
  1 1 64  1.09988926E-04
  1 1 65  1.10043088E-04
  1 1 66  1.09887119E-04
  1 1 67  1.09925116E-04
END period  1

