# File generated by Flopy version 3.10.0.dev1 on 02/06/2025 at 18:51:33.
BEGIN options
  SAVE_FLOWS
END options

BEGIN packages
  DISV6  mp7-p04-gwf.disv  disv
  IC6  mp7-p04-gwf.ic  ic
  WEL6  mp7-p04-gwf.wel  wel_0
  NPF6  mp7-p04-gwf.npf  npf
  CHD6  mp7-p04-gwf.chd  chd
  OC6  mp7-p04-gwf.oc  oc
END packages

