# File generated by Flopy version 3.10.0.dev1 on 02/06/2025 at 18:51:33.
BEGIN options
END options

BEGIN timing
  TDIS6  mp7-p04-gwf.tdis
END timing

BEGIN models
  gwf6  ex-prt-mp7-p04.nam  mp7-p04-gwf
END models

BEGIN exchanges
END exchanges

BEGIN solutiongroup  1
  ims6  mp7-p04-gwf.ims  mp7-p04-gwf
END solutiongroup  1

