# File generated by Flopy version 3.10.0.dev1 on 02/06/2025 at 18:51:33.
BEGIN options
  auxiliary  IFACE  IFLOWFACE
  SAVE_FLOWS
END options

BEGIN dimensions
  MAXBOUND  68
END dimensions

BEGIN period  1
  1 862 -3.00000000E+04 0 -1
  1 892 -3.00000000E+04 0 -1
  1 1960 1.00000000E+04 1 4
  1 1933 1.00000000E+04 3 3
  1 1932 1.00000000E+04 3 3
  1 1931 5.00000000E+03 1 4
  1 1931 5.00000000E+03 3 3
  1 1904 5.00000000E+03 1 4
  1 1904 5.00000000E+03 3 3
  1 1877 1.00000000E+04 3 3
  1 1876 1.00000000E+04 3 3
  1 1875 5.00000000E+03 1 4
  1 1875 5.00000000E+03 3 3
  1 1848 1.00000000E+04 3 3
  1 1847 1.00000000E+04 3 3
  1 1846 5.00000000E+03 1 4
  1 1846 5.00000000E+03 3 3
  1 1819 5.00000000E+03 1 4
  1 1819 5.00000000E+03 3 3
  1 1793 1.00000000E+04 1 4
  1 1767 1.00000000E+04 1 4
  1 1741 5.00000000E+03 1 4
  1 1741 5.00000000E+03 4 1
  1 1716 5.00000000E+03 1 4
  1 1716 5.00000000E+03 4 1
  1 1691 1.00000000E+04 1 4
  1 1647 5.00000000E+03 1 4
  1 1647 5.00000000E+03 4 1
  1 1550 5.00000000E+03 1 4
  1 1550 5.00000000E+03 4 1
  1 1333 5.00000000E+03 4 1
  1 1333 5.00000000E+03 1 5
  1 1022 2.50000000E+03 1 4
  1 1022 2.50000000E+03 4 1
  1 1021 5.00000000E+03 1 5
  1 709 2.50000000E+03 1 5
  1 709 2.50000000E+03 4 1
  1 712 6.25000000E+02 1 4
  1 712 6.25000000E+02 4 1
  1 711 6.25000000E+02 1 4
  1 711 6.25000000E+02 4 1
  1 410 1.25000000E+03 1 4
  1 408 6.25000000E+02 1 4
  1 408 6.25000000E+02 4 1
  1 403 6.25000000E+02 1 5
  1 403 6.25000000E+02 4 1
  1 414 1.25000000E+03 1 4
  1 412 1.25000000E+03 1 4
  1 204 1.25000000E+03 1 5
  1 204 1.25000000E+03 4 1
  1 203 1.25000000E+03 1 4
  1 203 1.25000000E+03 4 1
  1 200 2.50000000E+03 1 4
  1 198 1.25000000E+03 1 4
  1 198 1.25000000E+03 4 1
  1 97 2.50000000E+03 1 4
  1 97 2.50000000E+03 4 1
  1 99 1.25000000E+03 1 4
  1 102 1.25000000E+03 1 4
  1 102 1.25000000E+03 4 1
  1 101 1.25000000E+03 1 4
  1 101 1.25000000E+03 4 1
  1 44 2.50000000E+03 1 5
  1 44 2.50000000E+03 4 1
  1 45 2.50000000E+03 1 4
  1 45 2.50000000E+03 4 1
  1 46 5.00000000E+03 4 1
  1 11 1.00000000E+04 1 5
END period  1

