# File generated by Flopy version 3.10.0.dev1 on 02/06/2025 at 18:51:33.
BEGIN options
  SAVE_FLOWS
END options

BEGIN dimensions
  MAXBOUND  5
END dimensions

BEGIN period  1
  1 1328 1.50000000E+02
  1 1546 1.50000000E+02
  1 1644 1.50000000E+02
  1 1688 1.50000000E+02
  1 1714 1.50000000E+02
END period  1

