# File generated by Flopy version 3.10.0.dev1 on 02/06/2025 at 18:51:33.
BEGIN options
  COMPLEXITY  simple
END options

BEGIN nonlinear
  OUTER_DVCLOSE  1.00000000E-04
  OUTER_MAXIMUM  100
  UNDER_RELAXATION_GAMMA       0.00000000
  UNDER_RELAXATION_THETA       0.00000000
  UNDER_RELAXATION_KAPPA       0.00000000
  UNDER_RELAXATION_MOMENTUM       0.00000000
END nonlinear

BEGIN linear
  INNER_DVCLOSE  1.00000000E-05
  LINEAR_ACCELERATION  bicgstab
  RELAXATION_FACTOR       0.99000000
  NUMBER_ORTHOGONALIZATIONS  2
END linear

