# File generated by Flopy version 3.10.0.dev1 on 02/06/2025 at 18:50:54.
BEGIN options
  SAVE_SPECIFIC_DISCHARGE
  SAVE_SATURATION
END options

BEGIN griddata
  icelltype  LAYERED
    CONSTANT  1
    CONSTANT  0
    CONSTANT  0
    CONSTANT  0
    CONSTANT  0
    CONSTANT  0
    CONSTANT  0
    CONSTANT  0
  k
    CONSTANT     250.00000000
  k33
    CONSTANT     125.00000000
END griddata

