# File generated by Flopy version 3.10.0.dev1 on 02/06/2025 at 18:50:54.
BEGIN options
  READASARRAYS
END options

BEGIN period  1
  recharge
    CONSTANT       0.00479000
END period  1

