# File generated by Flopy version 3.10.0.dev1 on 02/06/2025 at 18:51:30.
BEGIN options
  auxiliary  iface  iflowface
END options

BEGIN dimensions
  MAXBOUND  11
END dimensions

BEGIN period  1
  1 15 10 3.22500000E+02 1.00000000E+05 6 -1
  1 15 11 3.22500000E+02 1.00000000E+05 6 -1
  1 15 12 3.22500000E+02 1.00000000E+05 6 -1
  1 15 13 3.22500000E+02 1.00000000E+05 6 -1
  1 15 14 3.22500000E+02 1.00000000E+05 6 -1
  1 15 15 3.22500000E+02 1.00000000E+05 6 -1
  1 15 16 3.22500000E+02 1.00000000E+05 6 -1
  1 15 17 3.22500000E+02 1.00000000E+05 6 -1
  1 15 18 3.22500000E+02 1.00000000E+05 6 -1
  1 15 19 3.22500000E+02 1.00000000E+05 6 -1
  1 15 20 3.22500000E+02 1.00000000E+05 6 -1
END period  1

