# File generated by Flopy version 3.10.0.dev1 on 02/06/2025 at 18:50:42.
BEGIN options
END options

BEGIN timing
  TDIS6  ex-gwt-mt3dms-p04a.tdis
END timing

BEGIN models
  gwf6  gwf-p04-mf6.nam  gwf-p04-mf6
  gwt6  gwt_p04-mf6.nam  gwt_p04-mf6
END models

BEGIN exchanges
  GWF6-GWT6  p04-mf6.gwfgwt  gwf-p04-mf6  gwt_p04-mf6
END exchanges

BEGIN solutiongroup  1
  ims6  gwf-p04-mf6.ims  gwf-p04-mf6
  ims6  gwt_p04-mf6.ims  gwt_p04-mf6
END solutiongroup  1

