# File generated by Flopy version 3.10.0.dev1 on 02/06/2025 at 18:50:34.
BEGIN options
  DIGITS  10
  PRINT_INPUT
END options

BEGIN continuous  FILEOUT  trans.obs.csv
  SOURCELOC  CONCENTRATION  1 12 8
END continuous  FILEOUT  trans.obs.csv

