# File generated by Flopy version 3.10.0.dev1 on 02/06/2025 at 18:50:34.
BEGIN options
  TIME_UNITS  days
END options

BEGIN dimensions
  NPER  1
END dimensions

BEGIN perioddata
     400.00000000  400       1.00000000
END perioddata

