# File generated by Flopy version 3.10.0.dev1 on 02/06/2025 at 18:49:55.
BEGIN options
  TIME_UNITS  days
END options

BEGIN dimensions
  NPER  1
END dimensions

BEGIN perioddata
    1500.00000000  200       1.00500000
END perioddata

