# File generated by Flopy version 3.10.0.dev1 on 02/06/2025 at 18:49:55.
BEGIN options
  SAVE_SPECIFIC_DISCHARGE
END options

BEGIN griddata
  icelltype
    CONSTANT  1
  k
    CONSTANT      30.00000000
  k33
    CONSTANT      30.00000000
END griddata

