# File generated by Flopy version 3.10.0.dev1 on 02/06/2025 at 18:50:26.
BEGIN options
  BUDGET  FILEOUT  gwf-inner.bud
  HEAD  FILEOUT  gwf-inner.hds
  HEAD  PRINT_FORMAT  COLUMNS  10  WIDTH  15  DIGITS  6  GENERAL
END options

BEGIN period  1
  SAVE  HEAD  LAST
  SAVE  HEAD  STEPS  1  250  375  500
  SAVE  BUDGET  LAST
  PRINT  HEAD  LAST
  PRINT  BUDGET  FIRST
  PRINT  BUDGET  LAST
END period  1

