# File generated by Flopy version 3.10.0.dev1 on 02/06/2025 at 18:50:26.
BEGIN options
  SAVE_FLOWS
END options

BEGIN packages
  DIS6  gwt-outer.dis  dis
  IC6  gwt-outer.ic  ic
  ADV6  gwt-outer.adv  adv
  DSP6  gwt-outer.dsp  dsp-1
  MST6  gwt-outer.mst  mst-1
  SSM6  gwt-outer.ssm  ssm
  OC6  gwt-outer.oc  oc
END packages

