# File generated by Flopy version 3.10.0.dev1 on 02/06/2025 at 18:50:26.
BEGIN options
  BUDGET  FILEOUT  gwt-inner.cbc
  CONCENTRATION  FILEOUT  gwt-inner.ucn
  CONCENTRATION  PRINT_FORMAT  COLUMNS  10  WIDTH  15  DIGITS  6  GENERAL
END options

BEGIN period  1
  SAVE  CONCENTRATION  LAST
  SAVE  CONCENTRATION  STEPS  1  250  375  500
  SAVE  BUDGET  LAST
  PRINT  CONCENTRATION  LAST
  PRINT  BUDGET  LAST
END period  1

