# File generated by Flopy version 3.10.0.dev1 on 02/06/2025 at 18:51:29.
BEGIN options
  PRINT_INPUT
END options

BEGIN dimensions
  MAXBOUND  1
END dimensions

BEGIN period  1
  3 309 -1.50000000E+05
END period  1

