# File generated by Flopy version 3.10.0.dev1 on 02/06/2025 at 18:51:29.
BEGIN options
  LENGTH_UNITS  feet
END options

BEGIN dimensions
  NLAY  3
  NCPL  651
  NVERT  723
END dimensions

BEGIN griddata
  top
    INTERNAL  FACTOR  1.0
       400.00000000     400.00000000     400.00000000     400.00000000     400.00000000     400.00000000     400.00000000     400.00000000     400.00000000     400.00000000     400.00000000     400.00000000     400.00000000     400.00000000     400.00000000     400.00000000     400.00000000     400.00000000     400.00000000     400.00000000
       400.00000000     400.00000000     400.00000000     400.00000000     400.00000000     400.00000000     400.00000000     400.00000000     400.00000000     400.00000000     400.00000000     400.00000000     400.00000000     400.00000000     400.00000000     400.00000000     400.00000000     400.00000000     400.00000000     400.00000000
       400.00000000     400.00000000     400.00000000     400.00000000     400.00000000     400.00000000     400.00000000     400.00000000     400.00000000     400.00000000     400.00000000     400.00000000     400.00000000     400.00000000     400.00000000     400.00000000     400.00000000     400.00000000     400.00000000     400.00000000
       400.00000000     400.00000000     400.00000000     400.00000000     400.00000000     400.00000000     400.00000000     400.00000000     400.00000000     400.00000000     400.00000000     400.00000000     400.00000000     400.00000000     400.00000000     400.00000000     400.00000000     400.00000000     400.00000000     400.00000000
       400.00000000     400.00000000     400.00000000     400.00000000     400.00000000     400.00000000     400.00000000     400.00000000     400.00000000     400.00000000     400.00000000     400.00000000     400.00000000     400.00000000     400.00000000     400.00000000     400.00000000     400.00000000     400.00000000     400.00000000
       400.00000000     400.00000000     400.00000000     400.00000000     400.00000000     400.00000000     400.00000000     400.00000000     400.00000000     400.00000000     400.00000000     400.00000000     400.00000000     400.00000000     400.00000000     400.00000000     400.00000000     400.00000000     400.00000000     400.00000000
       400.00000000     400.00000000     400.00000000     400.00000000     400.00000000     400.00000000     400.00000000     400.00000000     400.00000000     400.00000000     400.00000000     400.00000000     400.00000000     400.00000000     400.00000000     400.00000000     400.00000000     400.00000000     400.00000000     400.00000000
       400.00000000     400.00000000     400.00000000     400.00000000     400.00000000     400.00000000     400.00000000     400.00000000     400.00000000     400.00000000     400.00000000     400.00000000     400.00000000     400.00000000     400.00000000     400.00000000     400.00000000     400.00000000     400.00000000     400.00000000
       400.00000000     400.00000000     400.00000000     400.00000000     400.00000000     400.00000000     400.00000000     400.00000000     400.00000000     400.00000000     400.00000000     400.00000000     400.00000000     400.00000000     400.00000000     400.00000000     400.00000000     400.00000000     400.00000000     400.00000000
       400.00000000     400.00000000     400.00000000     400.00000000     400.00000000     400.00000000     400.00000000     400.00000000     400.00000000     400.00000000     400.00000000     400.00000000     400.00000000     400.00000000     400.00000000     400.00000000     400.00000000     400.00000000     400.00000000     400.00000000
       400.00000000     400.00000000     400.00000000     400.00000000     400.00000000     400.00000000     400.00000000     400.00000000     400.00000000     400.00000000     400.00000000     400.00000000     400.00000000     400.00000000     400.00000000     400.00000000     400.00000000     400.00000000     400.00000000     400.00000000
       400.00000000     400.00000000     400.00000000     400.00000000     400.00000000     400.00000000     400.00000000     400.00000000     400.00000000     400.00000000     400.00000000     400.00000000     400.00000000     400.00000000     400.00000000     400.00000000     400.00000000     400.00000000     400.00000000     400.00000000
       400.00000000     400.00000000     400.00000000     400.00000000     400.00000000     400.00000000     400.00000000     400.00000000     400.00000000     400.00000000     400.00000000     400.00000000     400.00000000     400.00000000     400.00000000     400.00000000     400.00000000     400.00000000     400.00000000     400.00000000
       400.00000000     400.00000000     400.00000000     400.00000000     400.00000000     400.00000000     400.00000000     400.00000000     400.00000000     400.00000000     400.00000000     400.00000000     400.00000000     400.00000000     400.00000000     400.00000000     400.00000000     400.00000000     400.00000000     400.00000000
       400.00000000     400.00000000     400.00000000     400.00000000     400.00000000     400.00000000     400.00000000     400.00000000     400.00000000     400.00000000     400.00000000     400.00000000     400.00000000     400.00000000     400.00000000     400.00000000     400.00000000     400.00000000     400.00000000     400.00000000
       400.00000000     400.00000000     400.00000000     400.00000000     400.00000000     400.00000000     400.00000000     400.00000000     400.00000000     400.00000000     400.00000000     400.00000000     400.00000000     400.00000000     400.00000000     400.00000000     400.00000000     400.00000000     400.00000000     400.00000000
       400.00000000     400.00000000     400.00000000     400.00000000     400.00000000     400.00000000     400.00000000     400.00000000     400.00000000     400.00000000     400.00000000     400.00000000     400.00000000     400.00000000     400.00000000     400.00000000     400.00000000     400.00000000     400.00000000     400.00000000
       400.00000000     400.00000000     400.00000000     400.00000000     400.00000000     400.00000000     400.00000000     400.00000000     400.00000000     400.00000000     400.00000000     400.00000000     400.00000000     400.00000000     400.00000000     400.00000000     400.00000000     400.00000000     400.00000000     400.00000000
       400.00000000     400.00000000     400.00000000     400.00000000     400.00000000     400.00000000     400.00000000     400.00000000     400.00000000     400.00000000     400.00000000     400.00000000     400.00000000     400.00000000     400.00000000     400.00000000     400.00000000     400.00000000     400.00000000     400.00000000
       400.00000000     400.00000000     400.00000000     400.00000000     400.00000000     400.00000000     400.00000000     400.00000000     400.00000000     400.00000000     400.00000000     400.00000000     400.00000000     400.00000000     400.00000000     400.00000000     400.00000000     400.00000000     400.00000000     400.00000000
       400.00000000     400.00000000     400.00000000     400.00000000     400.00000000     400.00000000     400.00000000     400.00000000     400.00000000     400.00000000     400.00000000     400.00000000     400.00000000     400.00000000     400.00000000     400.00000000     400.00000000     400.00000000     400.00000000     400.00000000
       400.00000000     400.00000000     400.00000000     400.00000000     400.00000000     400.00000000     400.00000000     400.00000000     400.00000000     400.00000000     400.00000000     400.00000000     400.00000000     400.00000000     400.00000000     400.00000000     400.00000000     400.00000000     400.00000000     400.00000000
       400.00000000     400.00000000     400.00000000     400.00000000     400.00000000     400.00000000     400.00000000     400.00000000     400.00000000     400.00000000     400.00000000     400.00000000     400.00000000     400.00000000     400.00000000     400.00000000     400.00000000     400.00000000     400.00000000     400.00000000
       400.00000000     400.00000000     400.00000000     400.00000000     400.00000000     400.00000000     400.00000000     400.00000000     400.00000000     400.00000000     400.00000000     400.00000000     400.00000000     400.00000000     400.00000000     400.00000000     400.00000000     400.00000000     400.00000000     400.00000000
       400.00000000     400.00000000     400.00000000     400.00000000     400.00000000     400.00000000     400.00000000     400.00000000     400.00000000     400.00000000     400.00000000     400.00000000     400.00000000     400.00000000     400.00000000     400.00000000     400.00000000     400.00000000     400.00000000     400.00000000
       400.00000000     400.00000000     400.00000000     400.00000000     400.00000000     400.00000000     400.00000000     400.00000000     400.00000000     400.00000000     400.00000000     400.00000000     400.00000000     400.00000000     400.00000000     400.00000000     400.00000000     400.00000000     400.00000000     400.00000000
       400.00000000     400.00000000     400.00000000     400.00000000     400.00000000     400.00000000     400.00000000     400.00000000     400.00000000     400.00000000     400.00000000     400.00000000     400.00000000     400.00000000     400.00000000     400.00000000     400.00000000     400.00000000     400.00000000     400.00000000
       400.00000000     400.00000000     400.00000000     400.00000000     400.00000000     400.00000000     400.00000000     400.00000000     400.00000000     400.00000000     400.00000000     400.00000000     400.00000000     400.00000000     400.00000000     400.00000000     400.00000000     400.00000000     400.00000000     400.00000000
       400.00000000     400.00000000     400.00000000     400.00000000     400.00000000     400.00000000     400.00000000     400.00000000     400.00000000     400.00000000     400.00000000     400.00000000     400.00000000     400.00000000     400.00000000     400.00000000     400.00000000     400.00000000     400.00000000     400.00000000
       400.00000000     400.00000000     400.00000000     400.00000000     400.00000000     400.00000000     400.00000000     400.00000000     400.00000000     400.00000000     400.00000000     400.00000000     400.00000000     400.00000000     400.00000000     400.00000000     400.00000000     400.00000000     400.00000000     400.00000000
       400.00000000     400.00000000     400.00000000     400.00000000     400.00000000     400.00000000     400.00000000     400.00000000     400.00000000     400.00000000     400.00000000     400.00000000     400.00000000     400.00000000     400.00000000     400.00000000     400.00000000     400.00000000     400.00000000     400.00000000
       400.00000000     400.00000000     400.00000000     400.00000000     400.00000000     400.00000000     400.00000000     400.00000000     400.00000000     400.00000000     400.00000000     400.00000000     400.00000000     400.00000000     400.00000000     400.00000000     400.00000000     400.00000000     400.00000000     400.00000000
       400.00000000     400.00000000     400.00000000     400.00000000     400.00000000     400.00000000     400.00000000     400.00000000     400.00000000     400.00000000     400.00000000
  botm  LAYERED
    INTERNAL  FACTOR  1.0
         220.00000000     220.00000000     220.00000000     220.00000000     220.00000000     220.00000000     220.00000000     220.00000000     220.00000000     220.00000000     220.00000000     220.00000000     220.00000000     220.00000000     220.00000000     220.00000000     220.00000000     220.00000000     220.00000000     220.00000000
         220.00000000     220.00000000     220.00000000     220.00000000     220.00000000     220.00000000     220.00000000     220.00000000     220.00000000     220.00000000     220.00000000     220.00000000     220.00000000     220.00000000     220.00000000     220.00000000     220.00000000     220.00000000     220.00000000     220.00000000
         220.00000000     220.00000000     220.00000000     220.00000000     220.00000000     220.00000000     220.00000000     220.00000000     220.00000000     220.00000000     220.00000000     220.00000000     220.00000000     220.00000000     220.00000000     220.00000000     220.00000000     220.00000000     220.00000000     220.00000000
         220.00000000     220.00000000     220.00000000     220.00000000     220.00000000     220.00000000     220.00000000     220.00000000     220.00000000     220.00000000     220.00000000     220.00000000     220.00000000     220.00000000     220.00000000     220.00000000     220.00000000     220.00000000     220.00000000     220.00000000
         220.00000000     220.00000000     220.00000000     220.00000000     220.00000000     220.00000000     220.00000000     220.00000000     220.00000000     220.00000000     220.00000000     220.00000000     220.00000000     220.00000000     220.00000000     220.00000000     220.00000000     220.00000000     220.00000000     220.00000000
         220.00000000     220.00000000     220.00000000     220.00000000     220.00000000     220.00000000     220.00000000     220.00000000     220.00000000     220.00000000     220.00000000     220.00000000     220.00000000     220.00000000     220.00000000     220.00000000     220.00000000     220.00000000     220.00000000     220.00000000
         220.00000000     220.00000000     220.00000000     220.00000000     220.00000000     220.00000000     220.00000000     220.00000000     220.00000000     220.00000000     220.00000000     220.00000000     220.00000000     220.00000000     220.00000000     220.00000000     220.00000000     220.00000000     220.00000000     220.00000000
         220.00000000     220.00000000     220.00000000     220.00000000     220.00000000     220.00000000     220.00000000     220.00000000     220.00000000     220.00000000     220.00000000     220.00000000     220.00000000     220.00000000     220.00000000     220.00000000     220.00000000     220.00000000     220.00000000     220.00000000
         220.00000000     220.00000000     220.00000000     220.00000000     220.00000000     220.00000000     220.00000000     220.00000000     220.00000000     220.00000000     220.00000000     220.00000000     220.00000000     220.00000000     220.00000000     220.00000000     220.00000000     220.00000000     220.00000000     220.00000000
         220.00000000     220.00000000     220.00000000     220.00000000     220.00000000     220.00000000     220.00000000     220.00000000     220.00000000     220.00000000     220.00000000     220.00000000     220.00000000     220.00000000     220.00000000     220.00000000     220.00000000     220.00000000     220.00000000     220.00000000
         220.00000000     220.00000000     220.00000000     220.00000000     220.00000000     220.00000000     220.00000000     220.00000000     220.00000000     220.00000000     220.00000000     220.00000000     220.00000000     220.00000000     220.00000000     220.00000000     220.00000000     220.00000000     220.00000000     220.00000000
         220.00000000     220.00000000     220.00000000     220.00000000     220.00000000     220.00000000     220.00000000     220.00000000     220.00000000     220.00000000     220.00000000     220.00000000     220.00000000     220.00000000     220.00000000     220.00000000     220.00000000     220.00000000     220.00000000     220.00000000
         220.00000000     220.00000000     220.00000000     220.00000000     220.00000000     220.00000000     220.00000000     220.00000000     220.00000000     220.00000000     220.00000000     220.00000000     220.00000000     220.00000000     220.00000000     220.00000000     220.00000000     220.00000000     220.00000000     220.00000000
         220.00000000     220.00000000     220.00000000     220.00000000     220.00000000     220.00000000     220.00000000     220.00000000     220.00000000     220.00000000     220.00000000     220.00000000     220.00000000     220.00000000     220.00000000     220.00000000     220.00000000     220.00000000     220.00000000     220.00000000
         220.00000000     220.00000000     220.00000000     220.00000000     220.00000000     220.00000000     220.00000000     220.00000000     220.00000000     220.00000000     220.00000000     220.00000000     220.00000000     220.00000000     220.00000000     220.00000000     220.00000000     220.00000000     220.00000000     220.00000000
         220.00000000     220.00000000     220.00000000     220.00000000     220.00000000     220.00000000     220.00000000     220.00000000     220.00000000     220.00000000     220.00000000     220.00000000     220.00000000     220.00000000     220.00000000     220.00000000     220.00000000     220.00000000     220.00000000     220.00000000
         220.00000000     220.00000000     220.00000000     220.00000000     220.00000000     220.00000000     220.00000000     220.00000000     220.00000000     220.00000000     220.00000000     220.00000000     220.00000000     220.00000000     220.00000000     220.00000000     220.00000000     220.00000000     220.00000000     220.00000000
         220.00000000     220.00000000     220.00000000     220.00000000     220.00000000     220.00000000     220.00000000     220.00000000     220.00000000     220.00000000     220.00000000     220.00000000     220.00000000     220.00000000     220.00000000     220.00000000     220.00000000     220.00000000     220.00000000     220.00000000
         220.00000000     220.00000000     220.00000000     220.00000000     220.00000000     220.00000000     220.00000000     220.00000000     220.00000000     220.00000000     220.00000000     220.00000000     220.00000000     220.00000000     220.00000000     220.00000000     220.00000000     220.00000000     220.00000000     220.00000000
         220.00000000     220.00000000     220.00000000     220.00000000     220.00000000     220.00000000     220.00000000     220.00000000     220.00000000     220.00000000     220.00000000     220.00000000     220.00000000     220.00000000     220.00000000     220.00000000     220.00000000     220.00000000     220.00000000     220.00000000
         220.00000000     220.00000000     220.00000000     220.00000000     220.00000000     220.00000000     220.00000000     220.00000000     220.00000000     220.00000000     220.00000000     220.00000000     220.00000000     220.00000000     220.00000000     220.00000000     220.00000000     220.00000000     220.00000000     220.00000000
         220.00000000     220.00000000     220.00000000     220.00000000     220.00000000     220.00000000     220.00000000     220.00000000     220.00000000     220.00000000     220.00000000     220.00000000     220.00000000     220.00000000     220.00000000     220.00000000     220.00000000     220.00000000     220.00000000     220.00000000
         220.00000000     220.00000000     220.00000000     220.00000000     220.00000000     220.00000000     220.00000000     220.00000000     220.00000000     220.00000000     220.00000000     220.00000000     220.00000000     220.00000000     220.00000000     220.00000000     220.00000000     220.00000000     220.00000000     220.00000000
         220.00000000     220.00000000     220.00000000     220.00000000     220.00000000     220.00000000     220.00000000     220.00000000     220.00000000     220.00000000     220.00000000     220.00000000     220.00000000     220.00000000     220.00000000     220.00000000     220.00000000     220.00000000     220.00000000     220.00000000
         220.00000000     220.00000000     220.00000000     220.00000000     220.00000000     220.00000000     220.00000000     220.00000000     220.00000000     220.00000000     220.00000000     220.00000000     220.00000000     220.00000000     220.00000000     220.00000000     220.00000000     220.00000000     220.00000000     220.00000000
         220.00000000     220.00000000     220.00000000     220.00000000     220.00000000     220.00000000     220.00000000     220.00000000     220.00000000     220.00000000     220.00000000     220.00000000     220.00000000     220.00000000     220.00000000     220.00000000     220.00000000     220.00000000     220.00000000     220.00000000
         220.00000000     220.00000000     220.00000000     220.00000000     220.00000000     220.00000000     220.00000000     220.00000000     220.00000000     220.00000000     220.00000000     220.00000000     220.00000000     220.00000000     220.00000000     220.00000000     220.00000000     220.00000000     220.00000000     220.00000000
         220.00000000     220.00000000     220.00000000     220.00000000     220.00000000     220.00000000     220.00000000     220.00000000     220.00000000     220.00000000     220.00000000     220.00000000     220.00000000     220.00000000     220.00000000     220.00000000     220.00000000     220.00000000     220.00000000     220.00000000
         220.00000000     220.00000000     220.00000000     220.00000000     220.00000000     220.00000000     220.00000000     220.00000000     220.00000000     220.00000000     220.00000000     220.00000000     220.00000000     220.00000000     220.00000000     220.00000000     220.00000000     220.00000000     220.00000000     220.00000000
         220.00000000     220.00000000     220.00000000     220.00000000     220.00000000     220.00000000     220.00000000     220.00000000     220.00000000     220.00000000     220.00000000     220.00000000     220.00000000     220.00000000     220.00000000     220.00000000     220.00000000     220.00000000     220.00000000     220.00000000
         220.00000000     220.00000000     220.00000000     220.00000000     220.00000000     220.00000000     220.00000000     220.00000000     220.00000000     220.00000000     220.00000000     220.00000000     220.00000000     220.00000000     220.00000000     220.00000000     220.00000000     220.00000000     220.00000000     220.00000000
         220.00000000     220.00000000     220.00000000     220.00000000     220.00000000     220.00000000     220.00000000     220.00000000     220.00000000     220.00000000     220.00000000     220.00000000     220.00000000     220.00000000     220.00000000     220.00000000     220.00000000     220.00000000     220.00000000     220.00000000
         220.00000000     220.00000000     220.00000000     220.00000000     220.00000000     220.00000000     220.00000000     220.00000000     220.00000000     220.00000000     220.00000000
    INTERNAL  FACTOR  1.0
         200.00000000     200.00000000     200.00000000     200.00000000     200.00000000     200.00000000     200.00000000     200.00000000     200.00000000     200.00000000     200.00000000     200.00000000     200.00000000     200.00000000     200.00000000     200.00000000     200.00000000     200.00000000     200.00000000     200.00000000
         200.00000000     200.00000000     200.00000000     200.00000000     200.00000000     200.00000000     200.00000000     200.00000000     200.00000000     200.00000000     200.00000000     200.00000000     200.00000000     200.00000000     200.00000000     200.00000000     200.00000000     200.00000000     200.00000000     200.00000000
         200.00000000     200.00000000     200.00000000     200.00000000     200.00000000     200.00000000     200.00000000     200.00000000     200.00000000     200.00000000     200.00000000     200.00000000     200.00000000     200.00000000     200.00000000     200.00000000     200.00000000     200.00000000     200.00000000     200.00000000
         200.00000000     200.00000000     200.00000000     200.00000000     200.00000000     200.00000000     200.00000000     200.00000000     200.00000000     200.00000000     200.00000000     200.00000000     200.00000000     200.00000000     200.00000000     200.00000000     200.00000000     200.00000000     200.00000000     200.00000000
         200.00000000     200.00000000     200.00000000     200.00000000     200.00000000     200.00000000     200.00000000     200.00000000     200.00000000     200.00000000     200.00000000     200.00000000     200.00000000     200.00000000     200.00000000     200.00000000     200.00000000     200.00000000     200.00000000     200.00000000
         200.00000000     200.00000000     200.00000000     200.00000000     200.00000000     200.00000000     200.00000000     200.00000000     200.00000000     200.00000000     200.00000000     200.00000000     200.00000000     200.00000000     200.00000000     200.00000000     200.00000000     200.00000000     200.00000000     200.00000000
         200.00000000     200.00000000     200.00000000     200.00000000     200.00000000     200.00000000     200.00000000     200.00000000     200.00000000     200.00000000     200.00000000     200.00000000     200.00000000     200.00000000     200.00000000     200.00000000     200.00000000     200.00000000     200.00000000     200.00000000
         200.00000000     200.00000000     200.00000000     200.00000000     200.00000000     200.00000000     200.00000000     200.00000000     200.00000000     200.00000000     200.00000000     200.00000000     200.00000000     200.00000000     200.00000000     200.00000000     200.00000000     200.00000000     200.00000000     200.00000000
         200.00000000     200.00000000     200.00000000     200.00000000     200.00000000     200.00000000     200.00000000     200.00000000     200.00000000     200.00000000     200.00000000     200.00000000     200.00000000     200.00000000     200.00000000     200.00000000     200.00000000     200.00000000     200.00000000     200.00000000
         200.00000000     200.00000000     200.00000000     200.00000000     200.00000000     200.00000000     200.00000000     200.00000000     200.00000000     200.00000000     200.00000000     200.00000000     200.00000000     200.00000000     200.00000000     200.00000000     200.00000000     200.00000000     200.00000000     200.00000000
         200.00000000     200.00000000     200.00000000     200.00000000     200.00000000     200.00000000     200.00000000     200.00000000     200.00000000     200.00000000     200.00000000     200.00000000     200.00000000     200.00000000     200.00000000     200.00000000     200.00000000     200.00000000     200.00000000     200.00000000
         200.00000000     200.00000000     200.00000000     200.00000000     200.00000000     200.00000000     200.00000000     200.00000000     200.00000000     200.00000000     200.00000000     200.00000000     200.00000000     200.00000000     200.00000000     200.00000000     200.00000000     200.00000000     200.00000000     200.00000000
         200.00000000     200.00000000     200.00000000     200.00000000     200.00000000     200.00000000     200.00000000     200.00000000     200.00000000     200.00000000     200.00000000     200.00000000     200.00000000     200.00000000     200.00000000     200.00000000     200.00000000     200.00000000     200.00000000     200.00000000
         200.00000000     200.00000000     200.00000000     200.00000000     200.00000000     200.00000000     200.00000000     200.00000000     200.00000000     200.00000000     200.00000000     200.00000000     200.00000000     200.00000000     200.00000000     200.00000000     200.00000000     200.00000000     200.00000000     200.00000000
         200.00000000     200.00000000     200.00000000     200.00000000     200.00000000     200.00000000     200.00000000     200.00000000     200.00000000     200.00000000     200.00000000     200.00000000     200.00000000     200.00000000     200.00000000     200.00000000     200.00000000     200.00000000     200.00000000     200.00000000
         200.00000000     200.00000000     200.00000000     200.00000000     200.00000000     200.00000000     200.00000000     200.00000000     200.00000000     200.00000000     200.00000000     200.00000000     200.00000000     200.00000000     200.00000000     200.00000000     200.00000000     200.00000000     200.00000000     200.00000000
         200.00000000     200.00000000     200.00000000     200.00000000     200.00000000     200.00000000     200.00000000     200.00000000     200.00000000     200.00000000     200.00000000     200.00000000     200.00000000     200.00000000     200.00000000     200.00000000     200.00000000     200.00000000     200.00000000     200.00000000
         200.00000000     200.00000000     200.00000000     200.00000000     200.00000000     200.00000000     200.00000000     200.00000000     200.00000000     200.00000000     200.00000000     200.00000000     200.00000000     200.00000000     200.00000000     200.00000000     200.00000000     200.00000000     200.00000000     200.00000000
         200.00000000     200.00000000     200.00000000     200.00000000     200.00000000     200.00000000     200.00000000     200.00000000     200.00000000     200.00000000     200.00000000     200.00000000     200.00000000     200.00000000     200.00000000     200.00000000     200.00000000     200.00000000     200.00000000     200.00000000
         200.00000000     200.00000000     200.00000000     200.00000000     200.00000000     200.00000000     200.00000000     200.00000000     200.00000000     200.00000000     200.00000000     200.00000000     200.00000000     200.00000000     200.00000000     200.00000000     200.00000000     200.00000000     200.00000000     200.00000000
         200.00000000     200.00000000     200.00000000     200.00000000     200.00000000     200.00000000     200.00000000     200.00000000     200.00000000     200.00000000     200.00000000     200.00000000     200.00000000     200.00000000     200.00000000     200.00000000     200.00000000     200.00000000     200.00000000     200.00000000