# File generated by Flopy version 3.10.0.dev1 on 02/06/2025 at 18:51:29.
BEGIN options
  READASARRAYS
  auxiliary  iface  iflowface
END options

BEGIN period  1
  recharge
    CONSTANT       0.00500000
  iface
    CONSTANT       6.00000000
  iflowface
    CONSTANT      -1.00000000
END period  1

