# File generated by Flopy version 3.10.0.dev1 on 02/06/2025 at 18:51:29.
BEGIN options
  PRINT_OPTION  summary
  COMPLEXITY  simple
END options

BEGIN nonlinear
  OUTER_DVCLOSE  1.00000000E-05
  OUTER_MAXIMUM  100
  UNDER_RELAXATION  none
END nonlinear

BEGIN linear
  INNER_MAXIMUM  100
  INNER_DVCLOSE  1.00000000E-06
  inner_rclose       0.10000000
  LINEAR_ACCELERATION  bicgstab
  RELAXATION_FACTOR       0.99000000
  SCALING_METHOD  none
  REORDERING_METHOD  none
END linear

