# File generated by Flopy version 3.10.0.dev1 on 02/06/2025 at 18:51:29.
BEGIN options
  BUDGET  FILEOUT  mp7-p02-gwf.cbb
  HEAD  FILEOUT  mp7-p02-gwf.hds
  HEAD  PRINT_FORMAT  COLUMNS  10  WIDTH  15  DIGITS  6  GENERAL
END options

BEGIN period  1
  SAVE  HEAD  ALL
  SAVE  BUDGET  ALL
  PRINT  HEAD  ALL
  PRINT  BUDGET  ALL
END period  1

