# File generated by Flopy version 3.10.0.dev1 on 02/06/2025 at 18:51:29.
BEGIN options
  auxiliary  iface  iflowface
END options

BEGIN dimensions
  MAXBOUND  21
END dimensions

BEGIN period  1
  1 651 3.20000000E+02 1.00000000E+05 3.18000000E+02 6 -1
  1 631 3.20000000E+02 1.00000000E+05 3.18000000E+02 6 -1
  1 611 3.20000000E+02 1.00000000E+05 3.18000000E+02 6 -1
  1 591 3.20000000E+02 1.00000000E+05 3.18000000E+02 6 -1
  1 571 3.20000000E+02 1.00000000E+05 3.18000000E+02 6 -1
  1 551 3.20000000E+02 1.00000000E+05 3.18000000E+02 6 -1
  1 531 3.20000000E+02 1.00000000E+05 3.18000000E+02 6 -1
  1 511 3.20000000E+02 1.00000000E+05 3.18000000E+02 6 -1
  1 491 3.20000000E+02 1.00000000E+05 3.18000000E+02 6 -1
  1 456 3.20000000E+02 1.00000000E+05 3.18000000E+02 6 -1
  1 385 3.20000000E+02 1.00000000E+05 3.18000000E+02 6 -1
  1 266 3.20000000E+02 1.00000000E+05 3.18000000E+02 6 -1
  1 195 3.20000000E+02 1.00000000E+05 3.18000000E+02 6 -1
  1 160 3.20000000E+02 1.00000000E+05 3.18000000E+02 6 -1
  1 140 3.20000000E+02 1.00000000E+05 3.18000000E+02 6 -1
  1 120 3.20000000E+02 1.00000000E+05 3.18000000E+02 6 -1
  1 100 3.20000000E+02 1.00000000E+05 3.18000000E+02 6 -1
  1 80 3.20000000E+02 1.00000000E+05 3.18000000E+02 6 -1
  1 60 3.20000000E+02 1.00000000E+05 3.18000000E+02 6 -1
  1 40 3.20000000E+02 1.00000000E+05 3.18000000E+02 6 -1
  1 20 3.20000000E+02 1.00000000E+05 3.18000000E+02 6 -1
END period  1

