# File generated by Flopy version 3.10.0.dev1 on 02/06/2025 at 18:49:52.
BEGIN options
  STORAGECOEFFICIENT
END options

BEGIN griddata
  iconvert
    CONSTANT  0
  ss
    CONSTANT  1.00000000E-06
END griddata

BEGIN period  1
  TRANSIENT
END period  1

