# File generated by Flopy version 3.10.0.dev1 on 02/06/2025 at 18:49:52.
BEGIN options
  TS6  FILEIN  ex-gwf-fhb.chd.ts
END options

BEGIN dimensions
  MAXBOUND  3
END dimensions

BEGIN period  1
  1 1 10 CHDHEAD
  1 2 10 CHDHEAD
  1 3 10 CHDHEAD
END period  1

