# File generated by Flopy version 3.10.0.dev1 on 02/06/2025 at 18:50:24.
BEGIN options
  NEWTON
END options

BEGIN packages
  DIS6  ex-gwf-zaidel.dis  dis
  NPF6  ex-gwf-zaidel.npf  npf
  IC6  ex-gwf-zaidel.ic  ic
  CHD6  ex-gwf-zaidel.chd  chd_0
  OC6  ex-gwf-zaidel.oc  oc
END packages

