# File generated by Flopy version 3.10.0.dev1 on 02/06/2025 at 18:50:24.
BEGIN options
  HEAD  FILEOUT  ex-gwf-zaidel.hds
END options

BEGIN period  1
  SAVE  HEAD  ALL
END period  1

