# File generated by Flopy version 3.10.0.dev1 on 02/06/2025 at 18:50:24.
BEGIN options
END options

BEGIN dimensions
  MAXBOUND  2
END dimensions

BEGIN period  1
  1 1 1 2.30000000E+01
  1 1 200 1.00000000E+01
END period  1

