# File generated by Flopy version 3.10.0.dev1 on 02/06/2025 at 18:50:24.
BEGIN options
END options

BEGIN griddata
  icelltype
    CONSTANT  1
  k
    CONSTANT  1.00000000E-04
END griddata

