# File generated by Flopy version 3.10.0.dev1 on 02/06/2025 at 18:51:30.
BEGIN options
END options

BEGIN timing
  TDIS6  ex-prt-mp7-p03.tdis
END timing

BEGIN models
  prt6  mp7-p03-prt.nam  mp7-p03-prt
END models

BEGIN exchanges
END exchanges

BEGIN solutiongroup  1
  ems6  mp7-p03-prt.ems  mp7-p03-prt
END solutiongroup  1

