# File generated by Flopy version 3.10.0.dev1 on 02/06/2025 at 18:51:30.
BEGIN options
END options

BEGIN griddata
  porosity
    CONSTANT       0.10000000
  izone  LAYERED
    INTERNAL  FACTOR  1
      1  1  1  1  1  1  1  1  1  1  1  1  1  1  1  1  1  1  1  5
      1  1  1  1  1  1  1  1  1  1  1  1  1  1  1  1  1  1  1  5
      1  1  1  1  1  1  1  1  1  1  1  1  1  1  1  1  1  1  1  5
      1  1  1  1  1  1  1  1  1  1  1  1  1  1  1  1  1  1  1  5
      1  1  1  1  1  1  1  1  1  1  1  1  1  1  1  1  1  1  1  5
      1  1  1  1  1  1  1  1  1  1  1  1  1  1  1  1  1  1  1  5
      1  1  1  1  1  1  1  1  1  1  1  1  1  1  1  1  1  1  1  5
      1  1  1  1  1  1  1  1  1  1  1  1  1  1  1  1  1  1  1  5
      1  1  1  1  1  1  1  1  1  1  1  1  1  1  1  1  1  1  1  5
      1  1  1  1  1  1  1  1  1  1  1  1  1  1  1  1  1  1  1  5
      1  1  1  1  1  1  1  1  1  2  1  1  1  1  1  1  1  1  1  5
      1  1  1  1  1  1  1  1  1  1  1  1  1  1  1  1  1  1  1  5
      1  1  1  1  1  1  1  1  1  1  1  1  1  1  1  1  1  1  1  5
      1  1  1  1  1  1  1  1  1  1  1  1  1  1  1  1  1  1  1  5
      1  1  1  1  1  1  1  1  1  4  4  4  4  4  4  4  4  4  4  5
      1  1  1  1  1  1  1  1  1  1  1  1  1  1  1  1  1  1  1  5
      1  1  1  1  1  1  1  1  1  1  1  1  1  1  1  1  1  1  1  5
      1  1  1  1  1  1  1  1  1  1  1  1  1  1  1  1  1  1  1  5
      1  1  1  1  1  1  1  1  1  1  1  1  1  1  1  1  1  1  1  5
      1  1  1  1  1  1  1  1  1  1  1  1  1  1  1  1  1  1  1  5
      1  1  1  1  1  1  1  1  1  1  1  1  1  1  1  1  1  1  1  5
    CONSTANT  1
    INTERNAL  FACTOR  1
      1  1  1  1  1  1  1  1  1  1  1  1  1  1  1  1  1  1  1  1
      1  1  1  1  1  1  1  1  1  1  1  1  1  1  1  1  1  1  1  1
      1  1  1  1  1  1  1  1  1  1  1  1  1  1  1  1  1  1  1  1
      1  1  1  1  1  1  1  1  1  1  1  1  1  1  1  1  1  1  1  1
      1  1  1  1  1  1  1  1  1  1  1  1  1  1  1  1  1  1  1  1
      1  1  1  1  1  1  1  1  1  1  1  1  1  1  1  1  1  1  1  1
      1  1  1  1  1  1  1  1  1  1  1  1  1  1  1  1  1  1  1  1
      1  1  1  1  1  1  1  1  1  1  1  1  1  1  1  1  1  1  1  1
      1  1  1  1  1  1  1  1  1  1  1  1  1  1  1  1  1  1  1  1
      1  1  1  1  1  1  1  1  1  1  1  1  1  1  1  1  1  1  1  1
      1  1  1  1  1  1  1  1  1  1  1  1  1  1  1  1  1  1  1  1
      1  1  1  1  1  1  1  1  1  1  1  1  1  1  1  1  1  1  1  1
      1  1  1  1  3  1  1  1  1  1  1  1  1  1  1  1  1  1  1  1
      1  1  1  1  1  1  1  1  1  1  1  1  1  1  1  1  1  1  1  1
      1  1  1  1  1  1  1  1  1  1  1  1  1  1  1  1  1  1  1  1
      1  1  1  1  1  1  1  1  1  1  1  1  1  1  1  1  1  1  1  1
      1  1  1  1  1  1  1  1  1  1  1  1  1  1  1  1  1  1  1  1
      1  1  1  1  1  1  1  1  1  1  1  1  1  1  1  1  1  1  1  1
      1  1  1  1  1  1  1  1  1  1  1  1  1  1  1  1  1  1  1  1
      1  1  1  1  1  1  1  1  1  1  1  1  1  1  1  1  1  1  1  1
      1  1  1  1  1  1  1  1  1  1  1  1  1  1  1  1  1  1  1  1
END griddata

