# File generated by Flopy version 3.10.0.dev1 on 02/06/2025 at 18:50:20.
BEGIN options
END options

BEGIN timing
  TDIS6  ex-gwf-bcf2ss.tdis
END timing

BEGIN models
  gwf6  ex-gwf-bcf2ss.nam  ex-gwf-bcf2ss
END models

BEGIN exchanges
END exchanges

BEGIN solutiongroup  1
  ims6  ex-gwf-bcf2ss.ims  ex-gwf-bcf2ss
END solutiongroup  1

