# File generated by Flopy version 3.10.0.dev1 on 02/06/2025 at 18:50:19.
BEGIN options
  LENGTH_UNITS  meters
END options

BEGIN dimensions
  NLAY  3
  NROW  15
  NCOL  10
END dimensions

BEGIN griddata
  delr
    CONSTANT     500.00000000
  delc
    CONSTANT     500.00000000
  top
    CONSTANT      50.00000000
  botm  LAYERED
    CONSTANT       5.00000000
    CONSTANT     -10.00000000
    CONSTANT    -100.00000000
END griddata

