# File generated by Flopy version 3.10.0.dev1 on 02/06/2025 at 18:50:19.
BEGIN options
END options

BEGIN continuous  FILEOUT  ex-gwf-advtidal.ghb.obs.csv
  ghb_2_6_10  ghb  2 6 10
  ghb_3_6_10  ghb  3 6 10
  estuary2  ghb  ESTUARY-L2
  estuary3  ghb  ESTUARY-L3
END continuous  FILEOUT  ex-gwf-advtidal.ghb.obs.csv

