# File generated by Flopy version 3.10.0.dev1 on 02/06/2025 at 18:50:15.
BEGIN options
END options

BEGIN timing
  TDIS6  ex-gwe-radial-slow.tdis
END timing

BEGIN models
  gwf6  gwf-radial.nam  gwf-radial
END models

BEGIN exchanges
END exchanges

BEGIN solutiongroup  1
  ims6  ex-gwe-radial-slow.ims  gwf-radial
END solutiongroup  1

