# File generated by Flopy version 3.10.0.dev1 on 02/06/2025 at 18:49:52.
BEGIN options
  BUDGET  FILEOUT  ex-gwe-prt-gwf.cbc
  HEAD  FILEOUT  ex-gwe-prt-gwf.hds
END options

BEGIN period  1
  SAVE  HEAD  ALL
  SAVE  BUDGET  ALL
  PRINT  HEAD  LAST
  PRINT  BUDGET  LAST
END period  1

