# File generated by Flopy version 3.10.0.dev1 on 02/06/2025 at 18:49:52.
BEGIN options
END options

BEGIN timing
  TDIS6  ex-gwe-prt.tdis
END timing

BEGIN models
  gwf6  ex-gwe-prt-gwf.nam  ex-gwe-prt-gwf
END models

BEGIN exchanges
END exchanges

BEGIN solutiongroup  1
  ims6  ex-gwe-prt-gwf.ims  ex-gwe-prt-gwf
END solutiongroup  1

