# File generated by Flopy version 3.4.1 on 10/02/2023 at 11:01:50.
BEGIN options
END options

BEGIN timing
  TDIS6  flowbase.tdis
END timing

BEGIN models
  gwf6  flowbase.nam  flowbase
END models

BEGIN exchanges
END exchanges

BEGIN solutiongroup  1
  ims6  flowbase.ims  flowbase
END solutiongroup  1

