# # MPBAS package for MODPATH 7 generated by Flopy 3.10.0.dev1
0                   # DEFAULTIFACECOUNT
CONSTANT    1.000000E-01                           #porosity layer 1              
