# MPSIM package for MODPATH 7 generated by Flopy 3.10.0.dev1
mp7-p04-mp7.mpnam
mp7-p04-mp7.mplst
2 2 2 2 1 0
mp7-p04-mp7.mpend
mp7-p04-mp7.mppth
0
1
0
2
1
1
1
G1
1
0.0
EXTERNAL ex-prt-mp7-p04.sloc
