# File generated by Flopy version 3.10.0.dev1 on 02/06/2025 at 18:50:39.
BEGIN options
  SAVE_SPECIFIC_DISCHARGE
  SAVE_SATURATION
END options

BEGIN griddata
  icelltype
    CONSTANT  0
  k
    CONSTANT       0.01000000
END griddata

