# File generated by Flopy version 3.10.0.dev1 on 02/06/2025 at 18:49:54.
BEGIN options
END options

BEGIN griddata
  iconvert
    CONSTANT  1
  ss
    CONSTANT  3.00000000E-04
  sy
    CONSTANT       0.20000000
END griddata

