# File generated by Flopy version 3.10.0.dev1 on 02/06/2025 at 18:50:34.
BEGIN options
  PRINT_OPTION  summary
END options

BEGIN linear
  INNER_MAXIMUM  300
END linear

