# File generated by Flopy version 3.10.0.dev1 on 02/06/2025 at 18:49:51.
BEGIN options
  DIGITS  10
  PRINT_INPUT
END options

BEGIN continuous  FILEOUT  ex-gwf-drn-p01.surfrate.obs.csv
  surfrate  uzf-gwd-to-mvr  surfrate
  netinfil  net-infiltration  surfrate
END continuous  FILEOUT  ex-gwf-drn-p01.surfrate.obs.csv

