# File generated by Flopy version 3.10.0.dev1 on 02/06/2025 at 18:50:09.
BEGIN options
  SAVE_FLOWS
END options

BEGIN packages
  DIS6  ex-gwf-maw-p02.dis  dis
  NPF6  ex-gwf-maw-p02.npf  npf
  STO6  ex-gwf-maw-p02.sto  sto
  IC6  ex-gwf-maw-p02.ic  ic
  MAW6  ex-gwf-maw-p02.maw  maw_0
  OC6  ex-gwf-maw-p02.oc  oc
END packages

