# File generated by Flopy version 3.4.1 on 01/04/2024 at 09:56:20.
BEGIN options
  BUDGET  FILEOUT  gwt_riverbase.cbc
  CONCENTRATION  FILEOUT  gwt_riverbase.ucn
  CONCENTRATION  PRINT_FORMAT  COLUMNS  10  WIDTH  15  DIGITS  6  GENERAL
END options

BEGIN period  1
  SAVE  CONCENTRATION  LAST
  SAVE  BUDGET  LAST
  PRINT  CONCENTRATION  LAST
  PRINT  BUDGET  LAST
END period  1

