# File generated by Flopy version 3.4.1 on 01/04/2024 at 09:56:20.
BEGIN options
  SAVE_FLOWS
END options

BEGIN packages
  DIS6  gwt_riverbase.dis  dis
  IC6  gwt_riverbase.ic  ic
  ADV6  gwt_riverbase.adv  adv
  DSP6  gwt_riverbase.dsp  dsp
  MST6  gwt_riverbase.mst  mst
  SSM6  gwt_riverbase.ssm  ssm
  CNC6  gwt_riverbase.cnc  cnc
  OC6  gwt_riverbase.oc  oc
END packages

