# File generated by Flopy version 3.4.1 on 01/04/2024 at 09:56:20.
BEGIN options
END options

BEGIN timing
  TDIS6  riverbase.tdis
END timing

BEGIN models
  gwf6  riverbase.nam  riverbase
  gwt6  gwt_riverbase.nam  gwt_riverbase
END models

BEGIN exchanges
  GWF6-GWT6  riverbase.gwfgwt  riverbase  gwt_riverbase
END exchanges

BEGIN solutiongroup  1
  ims6  riverbase.ims  riverbase
  ims6  gwt_riverbase.ims  gwt_riverbase
END solutiongroup  1

