# File generated by Flopy version 3.4.1 on 01/04/2024 at 09:56:20.
BEGIN options
  SAVE_FLOWS
END options

BEGIN packages
  DIS6  riverbase.dis  dis
  IC6  riverbase.ic  ic
  NPF6  riverbase.npf  npf
  STO6  riverbase.sto  sto
  CHD6  riverbase.chd  chd-1
  OC6  riverbase.oc  oc
  RIV6  riverbase.riv  riv-1
END packages

