# File generated by Flopy version 3.10.0.dev1 on 02/06/2025 at 18:49:41.
BEGIN options
  TIME_UNITS  seconds
END options

BEGIN dimensions
  NPER  1
END dimensions

BEGIN perioddata
  6.30720000E+09  10       1.62088626
END perioddata

