# File generated by Flopy version 3.10.0.dev1 on 02/06/2025 at 18:49:41.
BEGIN options
END options

BEGIN packages
  DIS6  ex-gwe-barends.dis  dis
  IC6  ex-gwe-barends.ic  ic-gwe
  ADV6  ex-gwe-barends.adv  adv
  CND6  ex-gwe-barends.cnd  cnd
  EST6  ex-gwe-barends.est  est
  CTP6  ex-gwe-barends.ctp  ctp
  SSM6  ex-gwe-barends.ssm  ssm
  OC6  ex-gwe-barends.oc  oc
  FMI6  ex-gwe-barends.fmi  fmi
END packages

