# File generated by Flopy version 3.10.0.dev1 on 02/06/2025 at 18:49:41.
BEGIN options
END options

BEGIN timing
  TDIS6  ex-gwe-barends.tdis
END timing

BEGIN models
  gwe6  ex-gwe-barends.nam  ex-gwe-barends
END models

BEGIN exchanges
END exchanges

BEGIN solutiongroup  1
  ims6  ex-gwe-barends.ims  ex-gwe-barends
END solutiongroup  1

