# File generated by Flopy version 3.10.0.dev1 on 02/06/2025 at 18:50:06.
BEGIN options
  SAVE_FLOWS
END options

BEGIN packages
  DIS6  child.dis  dis
  NPF6  child.npf  npf
  IC6  child.ic  ic
  RIV6  child.riv  riv
  RCH6  child.rcha  rch
  OC6  child.oc  oc
END packages

