# File generated by Flopy version 3.10.0.dev1 on 02/06/2025 at 18:50:05.
BEGIN options
END options

BEGIN nonlinear
  OUTER_DVCLOSE  1.00000000E-06
  OUTER_MAXIMUM  50
END nonlinear

BEGIN linear
  INNER_MAXIMUM  100
  INNER_DVCLOSE  1.00000000E-06
  inner_rclose     100.00000000  strict
END linear

