# File generated by Flopy version 3.10.0.dev1 on 02/06/2025 at 18:50:06.
BEGIN options
  READASARRAYS
END options

BEGIN period  1
  recharge
    CONSTANT  1.10980000E-09
END period  1

