# File generated by Flopy version 3.10.0.dev1 on 02/06/2025 at 18:49:39.
BEGIN options
END options

BEGIN nonlinear
  OUTER_DVCLOSE  1.00000000E-09
  OUTER_MAXIMUM  500
END nonlinear

BEGIN linear
  INNER_MAXIMUM  300
  INNER_DVCLOSE  1.00000000E-09
  inner_rclose  1.00000000E-06  strict
  LINEAR_ACCELERATION  bicgstab
  RELAXATION_FACTOR       1.00000000
END linear

