# File generated by Flopy version 3.10.0.dev1 on 02/06/2025 at 18:49:39.
BEGIN options
  TIME_UNITS  seconds
END options

BEGIN dimensions
  NPER  2
END dimensions

BEGIN perioddata
       0.50000000  1       1.00000000
      58.50000000  117       1.00000000
END perioddata

