# File generated by Flopy version 3.4.1 on 01/04/2024 at 09:56:20.
BEGIN options
  SAVE_FLOWS
END options

BEGIN packages
  DIS6  flowbase.dis  dis
  IC6  flowbase.ic  ic
  NPF6  flowbase.npf  npf
  STO6  flowbase.sto  sto
  CHD6  flowbase.chd  chd_0
  OC6  flowbase.oc  oc
END packages

