# File generated by Flopy version 3.4.1 on 01/04/2024 at 09:56:20.
BEGIN options
  SAVE_FLOWS
END options

BEGIN griddata
  iconvert
    CONSTANT  1
  ss
    INTERNAL  FACTOR  1.0  IPRN  1
      1.00000000E-06  1.00000000E-06  1.00000000E-06  1.00000000E-06  1.00000000E-06  1.00000000E-06  1.00000000E-06  1.00000000E-06  1.00000000E-06  1.00000000E-06
      1.00000000E-06  1.00000000E-06  1.00000000E-06  1.00000000E-06  1.00000000E-06  1.00000000E-06  1.00000000E-06  1.00000000E-06  1.00000000E-06  1.00000000E-06
      1.00000000E-06  1.00000000E-06  1.00000000E-06  1.00000000E-06  1.00000000E-06  1.00000000E-06  1.00000000E-06  1.00000000E-06  1.00000000E-06  1.00000000E-06
      1.00000000E-06  1.00000000E-06  1.00000000E-06  1.00000000E-06  1.00000000E-06  1.00000000E-06  1.00000000E-06  1.00000000E-06  1.00000000E-06  1.00000000E-06
      1.00000000E-06  1.00000000E-06  1.00000000E-06  1.00000000E-06  1.00000000E-06  1.00000000E-06  1.00000000E-06  1.00000000E-06  1.00000000E-06  1.00000000E-06
      1.00000000E-06  1.00000000E-06  1.00000000E-06  1.00000000E-06  1.00000000E-06  1.00000000E-06  1.00000000E-06  1.00000000E-06  1.00000000E-06  1.00000000E-06
      1.00000000E-06  1.00000000E-06  1.00000000E-06  1.00000000E-06  1.00000000E-06  1.00000000E-06  1.00000000E-06  1.00000000E-06  1.00000000E-06  1.00000000E-06
      1.00000000E-06  1.00000000E-06  1.00000000E-06  1.00000000E-06  1.00000000E-06  1.00000000E-06  1.00000000E-06  1.00000000E-06  1.00000000E-06  1.00000000E-06
      1.00000000E-06  1.00000000E-06  1.00000000E-06  1.00000000E-06  1.00000000E-06  1.00000000E-06  1.00000000E-06  1.00000000E-06  1.00000000E-06  1.00000000E-06
      1.00000000E-06  1.00000000E-06  1.00000000E-06  1.00000000E-06  1.00000000E-06  1.00000000E-06  1.00000000E-06  1.00000000E-06  1.00000000E-06  1.00000000E-06
      1.00000000E-06  1.00000000E-06  1.00000000E-06  1.00000000E-06  1.00000000E-06  1.00000000E-06  1.00000000E-06  1.00000000E-06  1.00000000E-06  1.00000000E-06
      1.00000000E-06  1.00000000E-06  1.00000000E-06  1.00000000E-06  1.00000000E-06  1.00000000E-06  1.00000000E-06  1.00000000E-06  1.00000000E-06  1.00000000E-06
      1.00000000E-06  1.00000000E-06  1.00000000E-06  1.00000000E-06  1.00000000E-06  1.00000000E-06  1.00000000E-06  1.00000000E-06  1.00000000E-06  1.00000000E-06
      1.00000000E-06  1.00000000E-06  1.00000000E-06  1.00000000E-06  1.00000000E-06  1.00000000E-06  1.00000000E-06  1.00000000E-06  1.00000000E-06  1.00000000E-06
      1.00000000E-06  1.00000000E-06  1.00000000E-06  1.00000000E-06  1.00000000E-06  1.00000000E-06  1.00000000E-06  1.00000000E-06  1.00000000E-06  1.00000000E-06
      1.00000000E-06  1.00000000E-06  1.00000000E-06  1.00000000E-06  1.00000000E-06  1.00000000E-06  1.00000000E-06  1.00000000E-06  1.00000000E-06  1.00000000E-06
      1.00000000E-06  1.00000000E-06  1.00000000E-06  1.00000000E-06  1.00000000E-06  1.00000000E-06  1.00000000E-06  1.00000000E-06  1.00000000E-06  1.00000000E-06
      1.00000000E-06  1.00000000E-06  1.00000000E-06  1.00000000E-06  1.00000000E-06  1.00000000E-06  1.00000000E-06  1.00000000E-06  1.00000000E-06  1.00000000E-06
      1.00000000E-06  1.00000000E-06  1.00000000E-06  1.00000000E-06  1.00000000E-06  1.00000000E-06  1.00000000E-06  1.00000000E-06  1.00000000E-06  1.00000000E-06
      1.00000000E-06  1.00000000E-06  1.00000000E-06  1.00000000E-06  1.00000000E-06  1.00000000E-06  1.00000000E-06  1.00000000E-06  1.00000000E-06  1.00000000E-06
      1.00000000E-06  1.00000000E-06  1.00000000E-06  1.00000000E-06  1.00000000E-06  1.00000000E-06  1.00000000E-06  1.00000000E-06  1.00000000E-06  1.00000000E-06
      1.00000000E-06  1.00000000E-06  1.00000000E-06  1.00000000E-06  1.00000000E-06  1.00000000E-06  1.00000000E-06  1.00000000E-06  1.00000000E-06  1.00000000E-06
      1.00000000E-06  1.00000000E-06  1.00000000E-06  1.00000000E-06  1.00000000E-06  1.00000000E-06  1.00000000E-06  1.00000000E-06  1.00000000E-06  1.00000000E-06
      1.00000000E-06  1.00000000E-06  1.00000000E-06  1.00000000E-06  1.00000000E-06  1.00000000E-06  1.00000000E-06  1.00000000E-06  1.00000000E-06  1.00000000E-06
      1.00000000E-06  1.00000000E-06  1.00000000E-06  1.00000000E-06  1.00000000E-06  1.00000000E-06  1.00000000E-06  1.00000000E-06  1.00000000E-06  1.00000000E-06
      1.00000000E-06  1.00000000E-06  1.00000000E-06  1.00000000E-06  1.00000000E-06  1.00000000E-06  1.00000000E-06  1.00000000E-06  1.00000000E-06  1.00000000E-06
      1.00000000E-06  1.00000000E-06  1.00000000E-06  1.00000000E-06  1.00000000E-06  1.00000000E-06  1.00000000E-06  1.00000000E-06  1.00000000E-06  1.00000000E-06
      1.00000000E-06  1.00000000E-06  1.00000000E-06  1.00000000E-06  1.00000000E-06  1.00000000E-06  1.00000000E-06  1.00000000E-06  1.00000000E-06  1.00000000E-06
      1.00000000E-06  1.00000000E-06  1.00000000E-06  1.00000000E-06  1.00000000E-06  1.00000000E-06  1.00000000E-06  1.00000000E-06  1.00000000E-06  1.00000000E-06
      1.00000000E-06  1.00000000E-06  1.00000000E-06  1.00000000E-06  1.00000000E-06  1.00000000E-06  1.00000000E-06  1.00000000E-06  1.00000000E-06  1.00000000E-06
      1.00000000E-06  1.00000000E-06  1.00000000E-06  1.00000000E-06  1.00000000E-06  1.00000000E-06  1.00000000E-06  1.00000000E-06  1.00000000E-06  1.00000000E-06
      1.00000000E-06  1.00000000E-06  1.00000000E-06  1.00000000E-06  1.00000000E-06  1.00000000E-06  1.00000000E-06  1.00000000E-06  1.00000000E-06  1.00000000E-06
      1.00000000E-06  1.00000000E-06  1.00000000E-06  1.00000000E-06  1.00000000E-06  1.00000000E-06  1.00000000E-06  1.00000000E-06  1.00000000E-06  1.00000000E-06
      1.00000000E-06  1.00000000E-06  1.00000000E-06  1.00000000E-06  1.00000000E-06  1.00000000E-06  1.00000000E-06  1.00000000E-06  1.00000000E-06  1.00000000E-06
      1.00000000E-06  1.00000000E-06  1.00000000E-06  1.00000000E-06  1.00000000E-06  1.00000000E-06  1.00000000E-06  1.00000000E-06  1.00000000E-06  1.00000000E-06
      1.00000000E-06  1.00000000E-06  1.00000000E-06  1.00000000E-06  1.00000000E-06  1.00000000E-06  1.00000000E-06  1.00000000E-06  1.00000000E-06  1.00000000E-06
      1.00000000E-06  1.00000000E-06  1.00000000E-06  1.00000000E-06  1.00000000E-06  1.00000000E-06  1.00000000E-06  1.00000000E-06  1.00000000E-06  1.00000000E-06
      1.00000000E-06  1.00000000E-06  1.00000000E-06  1.00000000E-06  1.00000000E-06  1.00000000E-06  1.00000000E-06  1.00000000E-06  1.00000000E-06  1.00000000E-06
      1.00000000E-06  1.00000000E-06  1.00000000E-06  1.00000000E-06  1.00000000E-06  1.00000000E-06  1.00000000E-06  1.00000000E-06  1.00000000E-06  1.00000000E-06
      1.00000000E-06  1.00000000E-06  1.00000000E-06  1.00000000E-06  1.00000000E-06  1.00000000E-06  1.00000000E-06  1.00000000E-06  1.00000000E-06  1.00000000E-06
      1.00000000E-06  1.00000000E-06  1.00000000E-06  1.00000000E-06  1.00000000E-06  1.00000000E-06  1.00000000E-06  1.00000000E-06  1.00000000E-06  1.00000000E-06
      1.00000000E-06  1.00000000E-06  1.00000000E-06  1.00000000E-06  1.00000000E-06  1.00000000E-06  1.00000000E-06  1.00000000E-06  1.00000000E-06  1.00000000E-06
      1.00000000E-06  1.00000000E-06  1.00000000E-06  1.00000000E-06  1.00000000E-06  1.00000000E-06  1.00000000E-06  1.00000000E-06  1.00000000E-06  1.00000000E-06
      1.00000000E-06  1.00000000E-06  1.00000000E-06  1.00000000E-06  1.00000000E-06  1.00000000E-06  1.00000000E-06  1.00000000E-06  1.00000000E-06  1.00000000E-06
      1.00000000E-06  1.00000000E-06  1.00000000E-06  1.00000000E-06  1.00000000E-06  1.00000000E-06  1.00000000E-06  1.00000000E-06  1.00000000E-06  1.00000000E-06
  sy
    INTERNAL  FACTOR  1.0  IPRN  1
           0.20000000       0.20000000       0.20000000       0.20000000       0.20000000       0.20000000       0.20000000       0.20000000       0.20000000       0.20000000
           0.20000000       0.20000000       0.20000000       0.20000000       0.20000000       0.20000000       0.20000000       0.20000000       0.20000000       0.20000000
           0.20000000       0.20000000       0.20000000       0.20000000       0.20000000       0.20000000       0.20000000       0.20000000       0.20000000       0.20000000
           0.20000000       0.20000000       0.20000000       0.20000000       0.20000000       0.20000000       0.20000000       0.20000000       0.20000000       0.20000000
           0.20000000       0.20000000       0.20000000       0.20000000       0.20000000       0.20000000       0.20000000       0.20000000       0.20000000       0.20000000
           0.20000000       0.20000000       0.20000000       0.20000000       0.20000000       0.20000000       0.20000000       0.20000000       0.20000000       0.20000000
           0.20000000       0.20000000       0.20000000       0.20000000       0.20000000       0.20000000       0.20000000       0.20000000       0.20000000       0.20000000
           0.20000000       0.20000000       0.20000000       0.20000000       0.20000000       0.20000000       0.20000000       0.20000000       0.20000000       0.20000000
           0.20000000       0.20000000       0.20000000       0.20000000       0.20000000       0.20000000       0.20000000       0.20000000       0.20000000       0.20000000
           0.20000000       0.20000000       0.20000000       0.20000000       0.20000000       0.20000000       0.20000000       0.20000000       0.20000000       0.20000000
           0.20000000       0.20000000       0.20000000       0.20000000       0.20000000       0.20000000       0.20000000       0.20000000       0.20000000       0.20000000
           0.20000000       0.20000000       0.20000000       0.20000000       0.20000000       0.20000000       0.20000000       0.20000000       0.20000000       0.20000000
           0.20000000       0.20000000       0.20000000       0.20000000       0.20000000       0.20000000       0.20000000       0.20000000       0.20000000       0.20000000
           0.20000000       0.20000000       0.20000000       0.20000000       0.20000000       0.20000000       0.20000000       0.20000000       0.20000000       0.20000000
           0.20000000       0.20000000       0.20000000       0.20000000       0.20000000       0.20000000       0.20000000       0.20000000       0.20000000       0.20000000
           0.20000000       0.20000000       0.20000000       0.20000000       0.20000000       0.20000000       0.20000000       0.20000000       0.20000000       0.20000000
           0.20000000       0.20000000       0.20000000       0.20000000       0.20000000       0.20000000       0.20000000       0.20000000       0.20000000       0.20000000
           0.20000000       0.20000000       0.20000000       0.20000000       0.20000000       0.20000000       0.20000000       0.20000000       0.20000000       0.20000000
           0.20000000       0.20000000       0.20000000       0.20000000       0.20000000       0.20000000       0.20000000       0.20000000       0.20000000       0.20000000
           0.20000000       0.20000000       0.20000000       0.20000000       0.20000000       0.20000000       0.20000000       0.20000000       0.20000000       0.20000000
           0.20000000       0.20000000       0.20000000       0.20000000       0.20000000       0.20000000       0.20000000       0.20000000       0.20000000       0.20000000
           0.20000000       0.20000000       0.20000000       0.20000000       0.20000000       0.20000000       0.20000000       0.20000000       0.20000000       0.20000000
           0.20000000       0.20000000       0.20000000       0.20000000       0.20000000       0.20000000       0.20000000       0.20000000       0.20000000       0.20000000
           0.20000000       0.20000000       0.20000000       0.20000000       0.20000000       0.20000000       0.20000000       0.20000000       0.20000000       0.20000000
           0.20000000       0.20000000       0.20000000       0.20000000       0.20000000       0.20000000       0.20000000       0.20000000       0.20000000       0.20000000
           0.20000000       0.20000000       0.20000000       0.20000000       0.20000000       0.20000000       0.20000000       0.20000000       0.20000000       0.20000000
           0.20000000       0.20000000       0.20000000       0.20000000       0.20000000       0.20000000       0.20000000       0.20000000       0.20000000       0.20000000
           0.20000000       0.20000000       0.20000000       0.20000000       0.20000000       0.20000000       0.20000000       0.20000000       0.20000000       0.20000000
           0.20000000       0.20000000       0.20000000       0.20000000       0.20000000       0.20000000       0.20000000       0.20000000       0.20000000       0.20000000
           0.20000000       0.20000000       0.20000000       0.20000000       0.20000000       0.20000000       0.20000000       0.20000000       0.20000000       0.20000000
           0.20000000       0.20000000       0.20000000       0.20000000       0.20000000       0.20000000       0.20000000       0.20000000       0.20000000       0.20000000
           0.20000000       0.20000000       0.20000000       0.20000000       0.20000000       0.20000000       0.20000000       0.20000000       0.20000000       0.20000000
           0.20000000       0.20000000       0.20000000       0.20000000       0.20000000       0.20000000       0.20000000       0.20000000       0.20000000       0.20000000
           0.20000000       0.20000000       0.20000000       0.20000000       0.20000000       0.20000000       0.20000000       0.20000000       0.20000000       0.20000000
           0.20000000       0.20000000       0.20000000       0.20000000       0.20000000       0.20000000       0.20000000       0.20000000       0.20000000       0.20000000
           0.20000000       0.20000000       0.20000000       0.20000000       0.20000000       0.20000000       0.20000000       0.20000000       0.20000000       0.20000000
           0.20000000       0.20000000       0.20000000       0.20000000       0.20000000       0.20000000       0.20000000       0.20000000       0.20000000       0.20000000
           0.20000000       0.20000000       0.20000000       0.20000000       0.20000000       0.20000000       0.20000000       0.20000000       0.20000000       0.20000000
           0.20000000       0.20000000       0.20000000       0.20000000       0.20000000       0.20000000       0.20000000       0.20000000       0.20000000       0.20000000
           0.20000000       0.20000000       0.20000000       0.20000000       0.20000000       0.20000000       0.20000000       0.20000000       0.20000000       0.20000000
           0.20000000       0.20000000       0.20000000       0.20000000       0.20000000       0.20000000       0.20000000       0.20000000       0.20000000       0.20000000
           0.20000000       0.20000000       0.20000000       0.20000000       0.20000000       0.20000000       0.20000000       0.20000000       0.20000000       0.20000000
           0.20000000       0.20000000       0.20000000       0.20000000       0.20000000       0.20000000       0.20000000       0.20000000       0.20000000       0.20000000
           0.20000000       0.20000000       0.20000000       0.20000000       0.20000000       0.20000000       0.20000000       0.20000000       0.20000000       0.20000000
           0.20000000       0.20000000       0.20000000       0.20000000       0.20000000       0.20000000       0.20000000       0.20000000       0.20000000       0.20000000
END griddata

BEGIN period  1
  STEADY-STATE
END period  1

BEGIN period  2
  TRANSIENT
END period  2

BEGIN period  3
  TRANSIENT
END period  3

