# File generated by Flopy version 3.4.1 on 01/04/2024 at 09:56:20.
BEGIN options
END options

BEGIN timing
  TDIS6  flowbase.tdis
END timing

BEGIN models
  gwf6  flowbase.nam  flowbase
END models

BEGIN exchanges
END exchanges

BEGIN solutiongroup  1
  ims6  flowbase.ims  flowbase
END solutiongroup  1

