# File generated by Flopy version 3.10.0.dev1 on 02/06/2025 at 18:49:42.
BEGIN options
END options

BEGIN timing
  TDIS6  ex-gwf-csub-p03a.tdis
END timing

BEGIN models
  gwf6  ex-gwf-csub-p03a.nam  ex-gwf-csub-p03a
END models

BEGIN exchanges
END exchanges

BEGIN solutiongroup  1
  ims6  ex-gwf-csub-p03a.ims  ex-gwf-csub-p03a
END solutiongroup  1

