# File generated by Flopy version 3.4.1 on 10/02/2023 at 11:01:50.
BEGIN options
  SCHEME  upstream
END options

