# File generated by Flopy version 3.4.1 on 10/02/2023 at 11:01:50.
BEGIN options
  BUDGET  FILEOUT  transportbase.bud
  HEAD  FILEOUT  transportbase.hds
END options

BEGIN period  1
  SAVE  HEAD  ALL
  SAVE  BUDGET  ALL
END period  1

