# File generated by Flopy version 3.10.0.dev1 on 02/06/2025 at 18:51:29.
BEGIN options
  EXIT_SOLVE_TOLERANCE  1.00000000E-05
  EXTEND_TRACKING
END options

BEGIN dimensions
  NRELEASEPTS  16
END dimensions

BEGIN packagedata
  1  3 309    4687.50000000    5257.81250000     100.00000000
  2  3 309    4687.50000000    5273.43750000     100.00000000
  3  3 309    4687.50000000    5289.06250000     100.00000000
  4  3 309    4687.50000000    5304.68750000     100.00000000
  5  3 309    4750.00000000    5257.81250000     100.00000000
  6  3 309    4750.00000000    5273.43750000     100.00000000
  7  3 309    4750.00000000    5289.06250000     100.00000000
  8  3 309    4750.00000000    5304.68750000     100.00000000
  9  3 309    4695.31250000    5250.00000000     100.00000000
  10  3 309    4710.93750000    5250.00000000     100.00000000
  11  3 309    4726.56250000    5250.00000000     100.00000000
  12  3 309    4742.18750000    5250.00000000     100.00000000
  13  3 309    4695.31250000    5312.50000000     100.00000000
  14  3 309    4710.93750000    5312.50000000     100.00000000
  15  3 309    4726.56250000    5312.50000000     100.00000000
  16  3 309    4742.18750000    5312.50000000     100.00000000
END packagedata

BEGIN period  1
  FIRST
END period  1

BEGIN period  2
END period  2

