# File generated by Flopy version 3.10.0.dev1 on 02/06/2025 at 18:51:29.
BEGIN options
END options

BEGIN packages
  DISV6  mp7-p02-prt.disv  disv
  MIP6  mp7-p02-prt.mip  mip
  PRP6  mp7-p02-prt_2A.prp  prp2a
  PRP6  mp7-p02-prt_2B.prp  prp2b
  OC6  mp7-p02-prt.oc  oc
  FMI6  mp7-p02-prt.fmi  fmi
END packages

