# File generated by Flopy version 3.10.0.dev1 on 02/06/2025 at 18:51:29.
BEGIN options
END options

BEGIN packagedata
  GWFHEAD  FILEIN  ../gwf/mp7-p02-gwf_bkwd.hds
  GWFBUDGET  FILEIN  ../gwf/mp7-p02-gwf_bkwd.cbb
END packagedata

