# File generated by Flopy version 3.10.0.dev1 on 02/06/2025 at 18:51:29.
BEGIN options
  EXIT_SOLVE_TOLERANCE  1.00000000E-05
  EXTEND_TRACKING
END options

BEGIN dimensions
  NRELEASEPTS  416
END dimensions

BEGIN packagedata
  1  3 309    4687.50000000    5253.12500000      10.00000000
  2  3 309    4687.50000000    5259.37500000      10.00000000
  3  3 309    4687.50000000    5265.62500000      10.00000000
  4  3 309    4687.50000000    5271.87500000      10.00000000
  5  3 309    4687.50000000    5278.12500000      10.00000000
  6  3 309    4687.50000000    5284.37500000      10.00000000
  7  3 309    4687.50000000    5290.62500000      10.00000000
  8  3 309    4687.50000000    5296.87500000      10.00000000
  9  3 309    4687.50000000    5303.12500000      10.00000000
  10  3 309    4687.50000000    5309.37500000      10.00000000
  11  3 309    4687.50000000    5253.12500000      30.00000000
  12  3 309    4687.50000000    5259.37500000      30.00000000
  13  3 309    4687.50000000    5265.62500000      30.00000000
  14  3 309    4687.50000000    5271.87500000      30.00000000
  15  3 309    4687.50000000    5278.12500000      30.00000000
  16  3 309    4687.50000000    5284.37500000      30.00000000
  17  3 309    4687.50000000    5290.62500000      30.00000000
  18  3 309    4687.50000000    5296.87500000      30.00000000
  19  3 309    4687.50000000    5303.12500000      30.00000000
  20  3 309    4687.50000000    5309.37500000      30.00000000
  21  3 309    4687.50000000    5253.12500000      50.00000000
  22  3 309    4687.50000000    5259.37500000      50.00000000
  23  3 309    4687.50000000    5265.62500000      50.00000000
  24  3 309    4687.50000000    5271.87500000      50.00000000
  25  3 309    4687.50000000    5278.12500000      50.00000000
  26  3 309    4687.50000000    5284.37500000      50.00000000
  27  3 309    4687.50000000    5290.62500000      50.00000000
  28  3 309    4687.50000000    5296.87500000      50.00000000
  29  3 309    4687.50000000    5303.12500000      50.00000000
  30  3 309    4687.50000000    5309.37500000      50.00000000
  31  3 309    4687.50000000    5253.12500000      70.00000000
  32  3 309    4687.50000000    5259.37500000      70.00000000
  33  3 309    4687.50000000    5265.62500000      70.00000000
  34  3 309    4687.50000000    5271.87500000      70.00000000
  35  3 309    4687.50000000    5278.12500000      70.00000000
  36  3 309    4687.50000000    5284.37500000      70.00000000
  37  3 309    4687.50000000    5290.62500000      70.00000000
  38  3 309    4687.50000000    5296.87500000      70.00000000
  39  3 309    4687.50000000    5303.12500000      70.00000000
  40  3 309    4687.50000000    5309.37500000      70.00000000
  41  3 309    4687.50000000    5253.12500000      90.00000000
  42  3 309    4687.50000000    5259.37500000      90.00000000
  43  3 309    4687.50000000    5265.62500000      90.00000000
  44  3 309    4687.50000000    5271.87500000      90.00000000
  45  3 309    4687.50000000    5278.12500000      90.00000000
  46  3 309    4687.50000000    5284.37500000      90.00000000
  47  3 309    4687.50000000    5290.62500000      90.00000000
  48  3 309    4687.50000000    5296.87500000      90.00000000
  49  3 309    4687.50000000    5303.12500000      90.00000000
  50  3 309    4687.50000000    5309.37500000      90.00000000
  51  3 309    4687.50000000    5253.12500000     110.00000000
  52  3 309    4687.50000000    5259.37500000     110.00000000
  53  3 309    4687.50000000    5265.62500000     110.00000000
  54  3 309    4687.50000000    5271.87500000     110.00000000
  55  3 309    4687.50000000    5278.12500000     110.00000000
  56  3 309    4687.50000000    5284.37500000     110.00000000
  57  3 309    4687.50000000    5290.62500000     110.00000000
  58  3 309    4687.50000000    5296.87500000     110.00000000
  59  3 309    4687.50000000    5303.12500000     110.00000000
  60  3 309    4687.50000000    5309.37500000     110.00000000
  61  3 309    4687.50000000    5253.12500000     130.00000000
  62  3 309    4687.50000000    5259.37500000     130.00000000
  63  3 309    4687.50000000    5265.62500000     130.00000000
  64  3 309    4687.50000000    5271.87500000     130.00000000
  65  3 309    4687.50000000    5278.12500000     130.00000000
  66  3 309    4687.50000000    5284.37500000     130.00000000
  67  3 309    4687.50000000    5290.62500000     130.00000000
  68  3 309    4687.50000000    5296.87500000     130.00000000
  69  3 309    4687.50000000    5303.12500000     130.00000000
  70  3 309    4687.50000000    5309.37500000     130.00000000
  71  3 309    4687.50000000    5253.12500000     150.00000000
  72  3 309    4687.50000000    5259.37500000     150.00000000
  73  3 309    4687.50000000    5265.62500000     150.00000000
  74  3 309    4687.50000000    5271.87500000     150.00000000
  75  3 309    4687.50000000    5278.12500000     150.00000000
  76  3 309    4687.50000000    5284.37500000     150.00000000
  77  3 309    4687.50000000    5290.62500000     150.00000000
  78  3 309    4687.50000000    5296.87500000     150.00000000
  79  3 309    4687.50000000    5303.12500000     150.00000000
  80  3 309    4687.50000000    5309.37500000     150.00000000
  81  3 309    4687.50000000    5253.12500000     170.00000000
  82  3 309    4687.50000000    5259.37500000     170.00000000
  83  3 309    4687.50000000    5265.62500000     170.00000000
  84  3 309    4687.50000000    5271.87500000     170.00000000
  85  3 309    4687.50000000    5278.12500000     170.00000000
  86  3 309    4687.50000000    5284.37500000     170.00000000
  87  3 309    4687.50000000    5290.62500000     170.00000000
  88  3 309    4687.50000000    5296.87500000     170.00000000
  89  3 309    4687.50000000    5303.12500000     170.00000000
  90  3 309    4687.50000000    5309.37500000     170.00000000
  91  3 309    4687.50000000    5253.12500000     190.00000000
  92  3 309    4687.50000000    5259.37500000     190.00000000
  93  3 309    4687.50000000    5265.62500000     190.00000000
  94  3 309    4687.50000000    5271.87500000     190.00000000
  95  3 309    4687.50000000    5278.12500000     190.00000000
  96  3 309    4687.50000000    5284.37500000     190.00000000
  97  3 309    4687.50000000    5290.62500000     190.00000000
  98  3 309    4687.50000000    5296.87500000     190.00000000
  99  3 309    4687.50000000    5303.12500000     190.00000000
  100  3 309    4687.50000000    5309.37500000     190.00000000
  101  3 309    4750.00000000    5253.12500000      10.00000000
  102  3 309    4750.00000000    5259.37500000      10.00000000
  103  3 309    4750.00000000    5265.62500000      10.00000000
  104  3 309    4750.00000000    5271.87500000      10.00000000
  105  3 309    4750.00000000    5278.12500000      10.00000000
  106  3 309    4750.00000000    5284.37500000      10.00000000
  107  3 309    4750.00000000    5290.62500000      10.00000000
  108  3 309    4750.00000000    5296.87500000      10.00000000
  109  3 309    4750.00000000    5303.12500000      10.00000000
  110  3 309    4750.00000000    5309.37500000      10.00000000
  111  3 309    4750.00000000    5253.12500000      30.00000000
  112  3 309    4750.00000000    5259.37500000      30.00000000
  113  3 309    4750.00000000    5265.62500000      30.00000000
  114  3 309    4750.00000000    5271.87500000      30.00000000
  115  3 309    4750.00000000    5278.12500000      30.00000000
  116  3 309    4750.00000000    5284.37500000      30.00000000
  117  3 309    4750.00000000    5290.62500000      30.00000000
  118  3 309    4750.00000000    5296.87500000      30.00000000
  119  3 309    4750.00000000    5303.12500000      30.00000000
  120  3 309    4750.00000000    5309.37500000      30.00000000
  121  3 309    4750.00000000    5253.12500000      50.00000000
  122  3 309    4750.00000000    5259.37500000      50.00000000
  123  3 309    4750.00000000    5265.62500000      50.00000000
  124  3 309    4750.00000000    5271.87500000      50.00000000
  125  3 309    4750.00000000    5278.12500000      50.00000000
  126  3 309    4750.00000000    5284.37500000      50.00000000
  127  3 309    4750.00000000    5290.62500000      50.00000000
  128  3 309    4750.00000000    5296.87500000      50.00000000
  129  3 309    4750.00000000    5303.12500000      50.00000000
  130  3 309    4750.00000000    5309.37500000      50.00000000
  131  3 309    4750.00000000    5253.12500000      70.00000000
  132  3 309    4750.00000000    5259.37500000      70.00000000
  133  3 309    4750.00000000    5265.62500000      70.00000000
  134  3 309    4750.00000000    5271.87500000      70.00000000
  135  3 309    4750.00000000    5278.12500000      70.00000000
  136  3 309    4750.00000000    5284.37500000      70.00000000
  137  3 309    4750.00000000    5290.62500000      70.00000000
  138  3 309    4750.00000000    5296.87500000      70.00000000
  139  3 309    4750.00000000    5303.12500000      70.00000000
  140  3 309    4750.00000000    5309.37500000      70.00000000
  141  3 309    4750.00000000    5253.12500000      90.00000000
  142  3 309    4750.00000000    5259.37500000      90.00000000
  143  3 309    4750.00000000    5265.62500000      90.00000000
  144  3 309    4750.00000000    5271.87500000      90.00000000
  145  3 309    4750.00000000    5278.12500000      90.00000000
  146  3 309    4750.00000000    5284.37500000      90.00000000
  147  3 309    4750.00000000    5290.62500000      90.00000000
  148  3 309    4750.00000000    5296.87500000      90.00000000
  149  3 309    4750.00000000    5303.12500000      90.00000000
  150  3 309    4750.00000000    5309.37500000      90.00000000
  151  3 309    4750.00000000    5253.12500000     110.00000000
  152  3 309    4750.00000000    5259.37500000     110.00000000
  153  3 309    4750.00000000    5265.62500000     110.00000000
  154  3 309    4750.00000000    5271.87500000     110.00000000
  155  3 309    4750.00000000    5278.12500000     110.00000000
  156  3 309    4750.00000000    5284.37500000     110.00000000
  157  3 309    4750.00000000    5290.62500000     110.00000000
  158  3 309    4750.00000000    5296.87500000     110.00000000
  159  3 309    4750.00000000    5303.12500000     110.00000000
  160  3 309    4750.00000000    5309.37500000     110.00000000
  161  3 309    4750.00000000    5253.12500000     130.00000000
  162  3 309    4750.00000000    5259.37500000     130.00000000
  163  3 309    4750.00000000    5265.62500000     130.00000000
  164  3 309    4750.00000000    5271.87500000     130.00000000
  165  3 309    4750.00000000    5278.12500000     130.00000000
  166  3 309    4750.00000000    5284.37500000     130.00000000
  167  3 309    4750.00000000    5290.62500000     130.00000000
  168  3 309    4750.00000000    5296.87500000     130.00000000
  169  3 309    4750.00000000    5303.12500000     130.00000000
  170  3 309    4750.00000000    5309.37500000     130.00000000
  171  3 309    4750.00000000    5253.12500000     150.00000000
  172  3 309    4750.00000000    5259.37500000     150.00000000
  173  3 309    4750.00000000    5265.62500000     150.00000000
  174  3 309    4750.00000000    5271.87500000     150.00000000
  175  3 309    4750.00000000    5278.12500000     150.00000000
  176  3 309    4750.00000000    5284.37500000     150.00000000
  177  3 309    4750.00000000    5290.62500000     150.00000000
  178  3 309    4750.00000000    5296.87500000     150.00000000
  179  3 309    4750.00000000    5303.12500000     150.00000000
  180  3 309    4750.00000000    5309.37500000     150.00000000
  181  3 309    4750.00000000    5253.12500000     170.00000000
  182  3 309    4750.00000000    5259.37500000     170.00000000
  183  3 309    4750.00000000    5265.62500000     170.00000000
  184  3 309    4750.00000000    5271.87500000     170.00000000
  185  3 309    4750.00000000    5278.12500000     170.00000000
  186  3 309    4750.00000000    5284.37500000     170.00000000
  187  3 309    4750.00000000    5290.62500000     170.00000000
  188  3 309    4750.00000000    5296.87500000     170.00000000
  189  3 309    4750.00000000    5303.12500000     170.00000000
  190  3 309    4750.00000000    5309.37500000     170.00000000
  191  3 309    4750.00000000    5253.12500000     190.00000000
  192  3 309    4750.00000000    5259.37500000     190.00000000
  193  3 309    4750.00000000    5265.62500000     190.00000000
  194  3 309    4750.00000000    5271.87500000     190.00000000
  195  3 309    4750.00000000    5278.12500000     190.00000000
  196  3 309    4750.00000000    5284.37500000     190.00000000
  197  3 309    4750.00000000    5290.62500000     190.00000000
  198  3 309    4750.00000000    5296.87500000     190.00000000
  199  3 309    4750.00000000    5303.12500000     190.00000000
  200  3 309    4750.00000000    5309.37500000     190.00000000
  201  3 309    4690.62500000    5250.00000000      10.00000000
  202  3 309    4696.87500000    5250.00000000      10.00000000
  203  3 309    4703.12500000    5250.00000000      10.00000000
  204  3 309    4709.37500000    5250.00000000      10.00000000
  205  3 309    4715.62500000    5250.00000000      10.00000000
  206  3 309    4721.87500000    5250.00000000      10.00000000
  207  3 309    4728.12500000    5250.00000000      10.00000000
  208  3 309    4734.37500000    5250.00000000      10.00000000
  209  3 309    4740.62500000    5250.00000000      10.00000000
  210  3 309    4746.87500000    5250.00000000      10.00000000
  211  3 309    4690.62500000    5250.00000000      30.00000000
  212  3 309    4696.87500000    5250.00000000      30.00000000
  213  3 309    4703.12500000    5250.00000000      30.00000000
  214  3 309    4709.37500000    5250.00000000      30.00000000
  215  3 309    4715.62500000    5250.00000000      30.00000000
  216  3 309    4721.87500000    5250.00000000      30.00000000
  217  3 309    4728.12500000    5250.00000000      30.00000000
  218  3 309    4734.37500000    5250.00000000      30.00000000
  219  3 309    4740.62500000    5250.00000000      30.00000000
  220  3 309    4746.87500000    5250.00000000      30.00000000
  221  3 309    4690.62500000    5250.00000000      50.00000000
  222  3 309    4696.87500000    5250.00000000      50.00000000
  223  3 309    4703.12500000    5250.00000000      50.00000000
  224  3 309    4709.37500000    5250.00000000      50.00000000
  225  3 309    4715.62500000    5250.00000000      50.00000000
  226  3 309    4721.87500000    5250.00000000      50.00000000
  227  3 309    4728.12500000    5250.00000000      50.00000000
  228  3 309    4734.37500000    5250.00000000      50.00000000
  229  3 309    4740.62500000    5250.00000000      50.00000000
  230  3 309    4746.87500000    5250.00000000      50.00000000
  231  3 309    4690.62500000    5250.00000000      70.00000000
  232  3 309    4696.87500000    5250.00000000      70.00000000
  233  3 309    4703.12500000    5250.00000000      70.00000000
  234  3 309    4709.37500000    5250.00000000      70.00000000
  235  3 309    4715.62500000    5250.00000000      70.00000000
  236  3 309    4721.87500000    5250.00000000      70.00000000
  237  3 309    4728.12500000    5250.00000000      70.00000000
  238  3 309    4734.37500000    5250.00000000      70.00000000
  239  3 309    4740.62500000    5250.00000000      70.00000000
  240  3 309    4746.87500000    5250.00000000      70.00000000
  241  3 309    4690.62500000    5250.00000000      90.00000000
  242  3 309    4696.87500000    5250.00000000      90.00000000
  243  3 309    4703.12500000    5250.00000000      90.00000000
  244  3 309    4709.37500000    5250.00000000      90.00000000
  245  3 309    4715.62500000    5250.00000000      90.00000000
  246  3 309    4721.87500000    5250.00000000      90.00000000
  247  3 309    4728.12500000    5250.00000000      90.00000000
  248  3 309    4734.37500000    5250.00000000      90.00000000
  249  3 309    4740.62500000    5250.00000000      90.00000000
  250  3 309    4746.87500000    5250.00000000      90.00000000
  251  3 309    4690.62500000    5250.00000000     110.00000000
  252  3 309    4696.87500000    5250.00000000     110.00000000
  253  3 309    4703.12500000    5250.00000000     110.00000000
  254  3 309    4709.37500000    5250.00000000     110.00000000
  255  3 309    4715.62500000    5250.00000000     110.00000000
  256  3 309    4721.87500000    5250.00000000     110.00000000
  257  3 309    4728.12500000    5250.00000000     110.00000000
  258  3 309    4734.37500000    5250.00000000     110.00000000
  259  3 309    4740.62500000    5250.00000000     110.00000000
  260  3 309    4746.87500000    5250.00000000     110.00000000
  261  3 309    4690.62500000    5250.00000000     130.00000000
  262  3 309    4696.87500000    5250.00000000     130.00000000
  263  3 309    4703.12500000    5250.00000000     130.00000000
  264  3 309    4709.37500000    5250.00000000     130.00000000
  265  3 309    4715.62500000    5250.00000000     130.00000000
  266  3 309    4721.87500000    5250.00000000     130.00000000
  267  3 309    4728.12500000    5250.00000000     130.00000000
  268  3 309    4734.37500000    5250.00000000     130.00000000
  269  3 309    4740.62500000    5250.00000000     130.00000000
  270  3 309    4746.87500000    5250.00000000     130.00000000
  271  3 309    4690.62500000    5250.00000000     150.00000000
  272  3 309    4696.87500000    5250.00000000     150.00000000
  273  3 309    4703.12500000    5250.00000000     150.00000000
  274  3 309    4709.37500000    5250.00000000     150.00000000
  275  3 309    4715.62500000    5250.00000000     150.00000000
  276  3 309    4721.87500000    5250.00000000     150.00000000
  277  3 309    4728.12500000    5250.00000000     150.00000000
  278  3 309    4734.37500000    5250.00000000     150.00000000
  279  3 309    4740.62500000    5250.00000000     150.00000000
  280  3 309    4746.87500000    5250.00000000     150.00000000
  281  3 309    4690.62500000    5250.00000000     170.00000000
  282  3 309    4696.87500000    5250.00000000     170.00000000
  283  3 309    4703.12500000    5250.00000000     170.00000000
  284  3 309    4709.37500000    5250.00000000     170.00000000
  285  3 309    4715.62500000    5250.00000000     170.00000000
  286  3 309    4721.87500000    5250.00000000     170.00000000
  287  3 309    4728.12500000    5250.00000000     170.00000000
  288  3 309    4734.37500000    5250.00000000     170.00000000
  289  3 309    4740.62500000    5250.00000000     170.00000000
  290  3 309    4746.87500000    5250.00000000     170.00000000
  291  3 309    4690.62500000    5250.00000000     190.00000000
  292  3 309    4696.87500000    5250.00000000     190.00000000
  293  3 309    4703.12500000    5250.00000000     190.00000000
  294  3 309    4709.37500000    5250.00000000     190.00000000
  295  3 309    4715.62500000    5250.00000000     190.00000000
  296  3 309    4721.87500000    5250.00000000     190.00000000
  297  3 309    4728.12500000    5250.00000000     190.00000000
  298  3 309    4734.37500000    5250.00000000     190.00000000
  299  3 309    4740.62500000    5250.00000000     190.00000000
  300  3 309    4746.87500000    5250.00000000     190.00000000
  301  3 309    4690.62500000    5312.50000000      10.00000000
  302  3 309    4696.87500000    5312.50000000      10.00000000
  303  3 309    4703.12500000    5312.50000000      10.00000000
  304  3 309    4709.37500000    5312.50000000      10.00000000
  305  3 309    4715.62500000    5312.50000000      10.00000000
  306  3 309    4721.87500000    5312.50000000      10.00000000
  307  3 309    4728.12500000    5312.50000000      10.00000000
  308  3 309    4734.37500000    5312.50000000      10.00000000
  309  3 309    4740.62500000    5312.50000000      10.00000000
  310  3 309    4746.87500000    5312.50000000      10.00000000
  311  3 309    4690.62500000    5312.50000000      30.00000000
  312  3 309    4696.87500000    5312.50000000      30.00000000
  313  3 309    4703.12500000    5312.50000000      30.00000000
  314  3 309    4709.37500000    5312.50000000      30.00000000
  315  3 309    4715.62500000    5312.50000000      30.00000000
  316  3 309    4721.87500000    5312.50000000      30.00000000
  317  3 309    4728.12500000    5312.50000000      30.00000000
  318  3 309    4734.37500000    5312.50000000      30.00000000
  319  3 309    4740.62500000    5312.50000000      30.00000000
  320  3 309    4746.87500000    5312.50000000      30.00000000
  321  3 309    4690.62500000    5312.50000000      50.00000000
  322  3 309    4696.87500000    5312.50000000      50.00000000
  323  3 309    4703.12500000    5312.50000000      50.00000000
  324  3 309    4709.37500000    5312.50000000      50.00000000
  325  3 309    4715.62500000    5312.50000000      50.00000000
  326  3 309    4721.87500000    5312.50000000      50.00000000
  327  3 309    4728.12500000    5312.50000000      50.00000000
  328  3 309    4734.37500000    5312.50000000      50.00000000
  329  3 309    4740.62500000    5312.50000000      50.00000000
  330  3 309    4746.87500000    5312.50000000      50.00000000
  331  3 309    4690.62500000    5312.50000000      70.00000000
  332  3 309    4696.87500000    5312.50000000      70.00000000
  333  3 309    4703.12500000    5312.50000000      70.00000000
  334  3 309    4709.37500000    5312.50000000      70.00000000
  335  3 309    4715.62500000    5312.50000000      70.00000000
  336  3 309    4721.87500000    5312.50000000      70.00000000
  337  3 309    4728.12500000    5312.50000000      70.00000000
  338  3 309    4734.37500000    5312.50000000      70.00000000
  339  3 309    4740.62500000    5312.50000000      70.00000000
  340  3 309    4746.87500000    5312.50000000      70.00000000
  341  3 309    4690.62500000    5312.50000000      90.00000000
  342  3 309    4696.87500000    5312.50000000      90.00000000
  343  3 309    4703.12500000    5312.50000000      90.00000000
  344  3 309    4709.37500000    5312.50000000      90.00000000
  345  3 309    4715.62500000    5312.50000000      90.00000000
  346  3 309    4721.87500000    5312.50000000      90.00000000
  347  3 309    4728.12500000    5312.50000000      90.00000000
  348  3 309    4734.37500000    5312.50000000      90.00000000
  349  3 309    4740.62500000    5312.50000000      90.00000000
  350  3 309    4746.87500000    5312.50000000      90.00000000
  351  3 309    4690.62500000    5312.50000000     110.00000000
  352  3 309    4696.87500000    5312.50000000     110.00000000
  353  3 309    4703.12500000    5312.50000000     110.00000000
  354  3 309    4709.37500000    5312.50000000     110.00000000
  355  3 309    4715.62500000    5312.50000000     110.00000000
  356  3 309    4721.87500000    5312.50000000     110.00000000
  357  3 309    4728.12500000    5312.50000000     110.00000000
  358  3 309    4734.37500000    5312.50000000     110.00000000
  359  3 309    4740.62500000    5312.50000000     110.00000000
  360  3 309    4746.87500000    5312.50000000     110.00000000
  361  3 309    4690.62500000    5312.50000000     130.00000000
  362  3 309    4696.87500000    5312.50000000     130.00000000
  363  3 309    4703.12500000    5312.50000000     130.00000000
  364  3 309    4709.37500000    5312.50000000     130.00000000
  365  3 309    4715.62500000    5312.50000000     130.00000000
  366  3 309    4721.87500000    5312.50000000     130.00000000
  367  3 309    4728.12500000    5312.50000000     130.00000000
  368  3 309    4734.37500000    5312.50000000     130.00000000
  369  3 309    4740.62500000    5312.50000000     130.00000000
  370  3 309    4746.87500000    5312.50000000     130.00000000
  371  3 309    4690.62500000    5312.50000000     150.00000000
  372  3 309    4696.87500000    5312.50000000     150.00000000
  373  3 309    4703.12500000    5312.50000000     150.00000000
  374  3 309    4709.37500000    5312.50000000     150.00000000
  375  3 309    4715.62500000    5312.50000000     150.00000000
  376  3 309    4721.87500000    5312.50000000     150.00000000
  377  3 309    4728.12500000    5312.50000000     150.00000000
  378  3 309    4734.37500000    5312.50000000     150.00000000
  379  3 309    4740.62500000    5312.50000000     150.00000000
  380  3 309    4746.87500000    5312.50000000     150.00000000
  381  3 309    4690.62500000    5312.50000000     170.00000000
  382  3 309    4696.87500000    5312.50000000     170.00000000
  383  3 309    4703.12500000    5312.50000000     170.00000000
  384  3 309    4709.37500000    5312.50000000     170.00000000
  385  3 309    4715.62500000    5312.50000000     170.00000000
  386  3 309    4721.87500000    5312.50000000     170.00000000
  387  3 309    4728.12500000    5312.50000000     170.00000000
  388  3 309    4734.37500000    5312.50000000     170.00000000
  389  3 309    4740.62500000    5312.50000000     170.00000000
  390  3 309    4746.87500000    5312.50000000     170.00000000
  391  3 309    4690.62500000    5312.50000000     190.00000000
  392  3 309    4696.87500000    5312.50000000     190.00000000
  393  3 309    4703.12500000    5312.50000000     190.00000000
  394  3 309    4709.37500000    5312.50000000     190.00000000
  395  3 309    4715.62500000    5312.50000000     190.00000000
  396  3 309    4721.87500000    5312.50000000     190.00000000
  397  3 309    4728.12500000    5312.50000000     190.00000000
  398  3 309    4734.37500000    5312.50000000     190.00000000
  399  3 309    4740.62500000    5312.50000000     190.00000000
  400  3 309    4746.87500000    5312.50000000     190.00000000
  401  3 309    4695.31250000    5257.81250000     200.00000000
  402  3 309    4710.93750000    5257.81250000     200.00000000
  403  3 309    4726.56250000    5257.81250000     200.00000000
  404  3 309    4742.18750000    5257.81250000     200.00000000
  405  3 309    4695.31250000    5273.43750000     200.00000000
  406  3 309    4710.93750000    5273.43750000     200.00000000
  407  3 309    4726.56250000    5273.43750000     200.00000000
  408  3 309    4742.18750000    5273.43750000     200.00000000
  409  3 309    4695.31250000    5289.06250000     200.00000000
  410  3 309    4710.93750000    5289.06250000     200.00000000
  411  3 309    4726.56250000    5289.06250000     200.00000000
  412  3 309    4742.18750000    5289.06250000     200.00000000
  413  3 309    4695.31250000    5304.68750000     200.00000000
  414  3 309    4710.93750000    5304.68750000     200.00000000
  415  3 309    4726.56250000    5304.68750000     200.00000000
  416  3 309    4742.18750000    5304.68750000     200.00000000
END packagedata

BEGIN period  1
  FIRST
END period  1

BEGIN period  2
END period  2

