# File generated by Flopy version 3.4.1 on 10/02/2023 at 10:59:01.
BEGIN options
  PRINT_OPTION  summary
END options

BEGIN nonlinear
  UNDER_RELAXATION  none
END nonlinear

BEGIN linear
  LINEAR_ACCELERATION  bicgstab
  SCALING_METHOD  none
  REORDERING_METHOD  none
END linear

