# File generated by Flopy version 3.10.0.dev1 on 02/06/2025 at 18:49:38.
BEGIN options
  TIME_UNITS  days
END options

BEGIN dimensions
  NPER  127
END dimensions

BEGIN perioddata
      10.00000000  1       1.00000000
      10.00000000  1       1.00000000
      10.00000000  1       1.00000000
      10.00000000  1       1.00000000
      10.00000000  1       1.00000000
      10.00000000  1       1.00000000
      10.00000000  1       1.00000000
      10.00000000  1       1.00000000
      10.00000000  1       1.00000000
      10.00000000  1       1.00000000
      10.00000000  1       1.00000000
      10.00000000  1       1.00000000
      10.00000000  1       1.00000000
      10.00000000  1       1.00000000
      10.00000000  1       1.00000000
      10.00000000  1       1.00000000
      10.00000000  1       1.00000000
      10.00000000  1       1.00000000
      10.00000000  1       1.00000000
      10.00000000  1       1.00000000
      10.00000000  1       1.00000000
      10.00000000  1       1.00000000
      10.00000000  1       1.00000000
      10.00000000  1       1.00000000
      10.00000000  1       1.00000000
      10.00000000  1       1.00000000
      10.00000000  1       1.00000000
      10.00000000  1       1.00000000
      10.00000000  1       1.00000000
      10.00000000  1       1.00000000
      10.00000000  1       1.00000000
      10.00000000  1       1.00000000
      10.00000000  1       1.00000000
      10.00000000  1       1.00000000
      10.00000000  1       1.00000000
      10.00000000  1       1.00000000
      10.00000000  1       1.00000000
      10.00000000  1       1.00000000
      10.00000000  1       1.00000000
      10.00000000  1       1.00000000
      10.00000000  1       1.00000000
      10.00000000  1       1.00000000
      10.00000000  1       1.00000000
      10.00000000  1       1.00000000
      10.00000000  1       1.00000000
      10.00000000  1       1.00000000
      10.00000000  1       1.00000000
      10.00000000  1       1.00000000
      10.00000000  1       1.00000000
      10.00000000  1       1.00000000
      10.00000000  1       1.00000000
      10.00000000  1       1.00000000
      10.00000000  1       1.00000000
      10.00000000  1       1.00000000
      10.00000000  1       1.00000000
      10.00000000  1       1.00000000
      10.00000000  1       1.00000000
      10.00000000  1       1.00000000
      10.00000000  1       1.00000000
      10.00000000  1       1.00000000
      10.00000000  1       1.00000000
      10.00000000  1       1.00000000
      10.00000000  1       1.00000000
      10.00000000  1       1.00000000
      10.00000000  1       1.00000000
      10.00000000  1       1.00000000
      10.00000000  1       1.00000000
      10.00000000  1       1.00000000
      10.00000000  1       1.00000000
      10.00000000  1       1.00000000
      10.00000000  1       1.00000000
      10.00000000  1       1.00000000
      10.00000000  1       1.00000000
      10.00000000  1       1.00000000
      10.00000000  1       1.00000000
      10.00000000  1       1.00000000
      10.00000000  1       1.00000000
      10.00000000  1       1.00000000
      10.00000000  1       1.00000000
      10.00000000  1       1.00000000
      10.00000000  1       1.00000000
      10.00000000  1       1.00000000
      10.00000000  1       1.00000000
      10.00000000  1       1.00000000
      10.00000000  1       1.00000000
      10.00000000  1       1.00000000
      10.00000000  1       1.00000000
      10.00000000  1       1.00000000
      10.00000000  1       1.00000000
      10.00000000  1       1.00000000
      10.00000000  1       1.00000000
      10.00000000  1       1.00000000
      10.00000000  1       1.00000000
      10.00000000  1       1.00000000
      10.00000000  1       1.00000000
      10.00000000  1       1.00000000
      10.00000000  1       1.00000000
      10.00000000  1       1.00000000
      10.00000000  1       1.00000000
      10.00000000  1       1.00000000
      10.00000000  1       1.00000000
      10.00000000  1       1.00000000
      10.00000000  1       1.00000000
      10.00000000  1       1.00000000
      10.00000000  1       1.00000000
      10.00000000  1       1.00000000
      10.00000000  1       1.00000000
      10.00000000  1       1.00000000
      10.00000000  1       1.00000000
      10.00000000  1       1.00000000
      10.00000000  1       1.00000000
      10.00000000  1       1.00000000
      10.00000000  1       1.00000000
      10.00000000  1       1.00000000
      10.00000000  1       1.00000000
      10.00000000  1       1.00000000
      10.00000000  1       1.00000000
      10.00000000  1       1.00000000
      10.00000000  1       1.00000000
      10.00000000  1       1.00000000
      10.00000000  1       1.00000000
      10.00000000  1       1.00000000
      10.00000000  1       1.00000000
      10.00000000  1       1.00000000
      10.00000000  1       1.00000000
      10.00000000  1       1.00000000
      10.00000000  1       1.00000000
END perioddata

