# File generated by Flopy version 3.10.0.dev1 on 02/06/2025 at 18:49:40.
BEGIN options
END options

BEGIN packages
  DISV6  gwe-ates.disv  disv-gwe
  IC6  gwe-ates.ic  ic
  ADV6  gwe-ates.adv  adv
  EST6  gwe-ates.est  est
  CND6  gwe-ates.cnd  cnd
  SSM6  gwe-ates.ssm  ssm
  OC6  gwe-ates.oc  oc
END packages

