# File generated by Flopy version 3.10.0.dev1 on 02/06/2025 at 18:49:38.
BEGIN options
  PRINT_OPTION  summary
  COMPLEXITY  simple
END options

BEGIN nonlinear
  OUTER_DVCLOSE  1.00000000E-07
  OUTER_MAXIMUM  200
  UNDER_RELAXATION  dbd
END nonlinear

BEGIN linear
  INNER_MAXIMUM  300
  INNER_DVCLOSE  1.00000000E-07
  inner_rclose       0.00100000
  LINEAR_ACCELERATION  bicgstab
  RELAXATION_FACTOR       0.97000000
  SCALING_METHOD  none
  REORDERING_METHOD  none
END linear

