# Modified
BEGIN options
END options

BEGIN dimensions
  MAXBOUND  1
END dimensions

BEGIN period  1
  1 1 1 6.00000000E-02
END period  1

BEGIN period  2
  1 1 1 0
END period  2

