# File generated by Flopy version 3.10.0.dev1 on 02/06/2025 at 18:50:45.
BEGIN options
  TIME_UNITS  days
END options

BEGIN dimensions
  NPER  2
END dimensions

BEGIN perioddata
     912.50000000  365       1.00000000
    2737.50000000  1095       1.00000000
END perioddata

