# File generated by Flopy version 3.10.0.dev1 on 02/06/2025 at 18:50:45.
BEGIN options
END options

BEGIN continuous  FILEOUT  gwt_p06-mf6.obs.csv
  bckgrnd_cn  concentration  1 16 16
END continuous  FILEOUT  gwt_p06-mf6.obs.csv

