# File generated by Flopy version 3.10.0.dev1 on 02/06/2025 at 18:50:08.
BEGIN options
END options

BEGIN griddata
  strt  LAYERED
    CONSTANT       3.05000000
    CONSTANT       9.14000000
END griddata

