# File generated by Flopy version 3.10.0.dev1 on 02/06/2025 at 18:52:18.
BEGIN options
END options

BEGIN packages
  DIS6  ex-gwf-sfr-psa.dis  dis
  NPF6  ex-gwf-sfr-psa.npf  npf
  STO6  ex-gwf-sfr-psa.sto  sto
  IC6  ex-gwf-sfr-psa.ic  ic
  OC6  ex-gwf-sfr-psa.oc  oc
  SFR6  ex-gwf-sfr-psa.sfr  sfr-1
END packages

