# File generated by Flopy version 3.4.1 on 01/04/2024 at 09:56:20.
BEGIN options
  PRINT_OPTION  summary
END options

BEGIN nonlinear
  UNDER_RELAXATION  none
END nonlinear

BEGIN linear
  LINEAR_ACCELERATION  bicgstab
  SCALING_METHOD  none
  REORDERING_METHOD  none
END linear

