# File generated by Flopy version 3.4.1 on 01/04/2024 at 09:56:20.
BEGIN options
  SAVE_FLOWS
END options

BEGIN packages
  DIS6  gwt_transbase.dis  dis
  IC6  gwt_transbase.ic  ic
  ADV6  gwt_transbase.adv  adv
  DSP6  gwt_transbase.dsp  dsp
  MST6  gwt_transbase.mst  mst
  SSM6  gwt_transbase.ssm  ssm
  CNC6  gwt_transbase.cnc  cnc
  OC6  gwt_transbase.oc  oc
END packages

