# File generated by Flopy version 3.4.1 on 01/04/2024 at 09:56:20.
BEGIN options
END options

BEGIN timing
  TDIS6  transbase.tdis
END timing

BEGIN models
  gwf6  transbase.nam  transbase
  gwt6  gwt_transbase.nam  gwt_transbase
END models

BEGIN exchanges
  GWF6-GWT6  transbase.gwfgwt  transbase  gwt_transbase
END exchanges

BEGIN solutiongroup  1
  ims6  transbase.ims  transbase
  ims6  gwt_transbase.ims  gwt_transbase
END solutiongroup  1

