# File generated by Flopy version 3.4.1 on 01/04/2024 at 09:56:20.
BEGIN options
  auxiliary  CONCENTRATION
END options

BEGIN dimensions
  MAXBOUND  3
END dimensions

BEGIN period  2
  1 5 5      -0.05000000       0.00000000
  1 7 5      -0.05000000       0.00000000
  1 9 5      -0.05000000       0.00000000
END period  2

BEGIN period  3
  1 5 5      -0.50000000       0.00000000
  1 7 5      -0.50000000       0.00000000
  1 9 5      -0.50000000       0.00000000
END period  3

BEGIN period  4
  1 5 5      -0.05000000       0.00000000
  1 7 5      -0.05000000       0.00000000
  1 9 5      -0.05000000       0.00000000
END period  4

