# File generated by Flopy version 3.4.1 on 01/04/2024 at 09:56:20.
BEGIN options
  SAVE_FLOWS
END options

BEGIN packages
  DIS6  transbase.dis  dis
  IC6  transbase.ic  ic
  NPF6  transbase.npf  npf
  STO6  transbase.sto  sto
  WEL6  transbase.wel  wel-1
  CHD6  transbase.chd  chd-1
  OC6  transbase.oc  oc
END packages

