# File generated by Flopy version 3.10.0.dev1 on 02/06/2025 at 18:50:28.
BEGIN options
END options

BEGIN packagedata
  GWFHEAD  FILEIN  ../mf6gwf/gwf-hecht-mendez.hds
  GWFBUDGET  FILEIN  ../mf6gwf/gwf-hecht-mendez.bud
END packagedata

