# File generated by Flopy version 3.10.0.dev1 on 02/06/2025 at 18:50:28.
BEGIN options
END options

BEGIN griddata
  diffc
    CONSTANT  1.84000000E-06
  alh
    CONSTANT       0.50000000
  ath1
    CONSTANT       0.05000000
  atv
    CONSTANT       0.05000000
END griddata

