# File generated by Flopy version 3.10.0.dev1 on 02/06/2025 at 18:51:25.
BEGIN options
  PRINT_FLOWS
END options

BEGIN sources
  CHD-1  AUX  CONCENTRATION
END sources

