# File generated by Flopy version 3.10.0.dev1 on 02/06/2025 at 18:50:54.
BEGIN options
  DIGITS  7
  PRINT_INPUT
END options

BEGIN continuous  FILEOUT  trans.lkt.obs.csv
  lkt1conc  CONCENTRATION  1
  lkt2conc  CONCENTRATION  2
  lkt1frommvr  FROM-MVR  1
  lkt2frommvr  FROM-MVR  2
  lkt1tomvr  TO-MVR  1
  lkt1bntomvr  TO-MVR  mylake1
END continuous  FILEOUT  trans.lkt.obs.csv

