# File generated by Flopy version 3.10.0.dev1 on 02/06/2025 at 18:50:54.
BEGIN options
  BUDGET  FILEOUT  trans.bud
  CONCENTRATION  FILEOUT  trans.ucn
  CONCENTRATION  PRINT_FORMAT  COLUMNS  23  WIDTH  15  DIGITS  6  GENERAL
END options

BEGIN period  1
  SAVE  CONCENTRATION  ALL
  SAVE  BUDGET  ALL
  PRINT  CONCENTRATION  LAST
  PRINT  BUDGET  ALL
END period  1

