# File generated by Flopy version 3.10.0.dev1 on 02/06/2025 at 18:50:54.
BEGIN options
END options

BEGIN griddata
  alh
    CONSTANT      20.00000000
  ath1
    CONSTANT       2.00000000
  ath2
    CONSTANT       0.20000000
END griddata

