# File generated by Flopy version 3.10.0.dev1 on 02/06/2025 at 18:49:40.
BEGIN options
END options

BEGIN dimensions
  MAXBOUND  2
END dimensions

BEGIN period  1
  1 1 1 0.00000000E+00
  1 1 3 0.00000000E+00
END period  1

