# File generated by Flopy version 3.10.0.dev1 on 02/06/2025 at 18:50:12.
BEGIN options
END options

BEGIN dimensions
  MAXBOUND  4
END dimensions

BEGIN period  1
  1 1 1 5.00000000E-02
  1 1 2 5.00000000E-02
  1 2 1 5.00000000E-02
  1 2 2 5.00000000E-02
END period  1

