# File generated by Flopy version 3.10.0.dev1 on 02/06/2025 at 18:50:18.
BEGIN options
  XT3D_OFF
END options

BEGIN griddata
  ktw
    CONSTANT   50112.00000000
  kts
    CONSTANT   21600.00000000
END griddata

