# File generated by Flopy version 3.10.0.dev1 on 02/06/2025 at 18:50:18.
BEGIN options
  BUDGET  FILEOUT  ex-gwf-vsc-02.bud
  HEAD  FILEOUT  ex-gwf-vsc-02.hds
  HEAD  PRINT_FORMAT  COLUMNS  10  WIDTH  15  DIGITS  6  GENERAL
END options

BEGIN period  1
  SAVE  HEAD  LAST
  SAVE  BUDGET  LAST
  PRINT  HEAD  LAST
  PRINT  BUDGET  LAST
END period  1

