# File generated by Flopy version 3.10.0.dev1 on 02/06/2025 at 18:50:18.
BEGIN options
END options

BEGIN griddata
  iconvert
    CONSTANT  0
  ss
    CONSTANT       0.00000000
  sy
    CONSTANT       0.00000000
END griddata

