# File generated by Flopy version 3.10.0.dev1 on 02/06/2025 at 18:50:18.
BEGIN options
  TEMPERATURE  FILEOUT  ex-gwe-vsc-02.ucn
  TEMPERATURE  PRINT_FORMAT  COLUMNS  3  WIDTH  20  DIGITS  8  GENERAL
END options

BEGIN period  1
  SAVE  TEMPERATURE  ALL
  PRINT  TEMPERATURE  ALL
  PRINT  BUDGET  ALL
END period  1

