# File generated by Flopy version 3.10.0.dev1 on 02/06/2025 at 18:50:18.
BEGIN options
  SAVE_FLOWS
END options

BEGIN packages
  DIS6  ex-gwt-vsc-01.dis  dis
  IC6  ex-gwt-vsc-01.ic  ic
  ADV6  ex-gwt-vsc-01.adv  adv
  DSP6  ex-gwt-vsc-01.dsp  dsp
  MST6  ex-gwt-vsc-01.mst  mst
  CNC6  ex-gwt-vsc-01.cnc  cnc-1
  SSM6  ex-gwt-vsc-01.ssm  ssm
  OC6  ex-gwt-vsc-01.oc  oc
END packages

