# File generated by Flopy version 3.4.1 on 10/02/2023 at 10:59:00.
BEGIN options
  BUDGET  FILEOUT  flowbase.bud
  HEAD  FILEOUT  flowbase.hds
END options

BEGIN period  1
  SAVE  HEAD  ALL
  SAVE  BUDGET  ALL
END period  1

