# File generated by Flopy version 3.10.0.dev1 on 02/06/2025 at 18:52:22.
BEGIN options
  READASARRAYS
END options

BEGIN period  1
  recharge
    CONSTANT  3.00000000E-08
END period  1

