# File generated by Flopy version 3.10.0.dev1 on 02/06/2025 at 18:50:41.
BEGIN options
  TIME_UNITS  days
END options

BEGIN dimensions
  NPER  2
END dimensions

BEGIN perioddata
       1.00000000  2       1.00000000
     365.00000000  730       1.00000000
END perioddata

