# File generated by Flopy version 3.10.0.dev1 on 02/06/2025 at 18:51:23.
BEGIN options
  READASARRAYS
END options

BEGIN period  1
  recharge
    CONSTANT       0.00250000
END period  1

