BEGIN MODFLOW_GRID basegrid
  ROTATION_ANGLE = 0.0
  X_OFFSET = 0.0
  Y_OFFSET = 0.0
  NLAY = 1
  NROW = 21
  NCOL = 26
  DELR = CONSTANT 500.0
  DELC = CONSTANT 500.0
  TOP = CONSTANT 100.0
  BOTTOM LAYER 1 = CONSTANT 0.0
END MODFLOW_GRID


BEGIN QUADTREE_BUILDER quadtreebuilder
  MODFLOW_GRID = basegrid
  REFINEMENT_FEATURES LAYER 1 = rf0 rf1 rf2 
  SMOOTHING = full
  SMOOTHING_LEVEL_VERTICAL = 1
  SMOOTHING_LEVEL_HORIZONTAL = 1
  TOP LAYER 1 = REPLICATE basename
  BOTTOM LAYER 1 = REPLICATE basename
  GRID_DEFINITION_FILE = quadtreegrid.dfn
END QUADTREE_BUILDER




BEGIN REFINEMENT_FEATURES rf0
  SHAPEFILE = rf0.shp
  FEATURE_TYPE = polygon
  REFINEMENT_LEVEL = 1
END REFINEMENT_FEATURES


BEGIN REFINEMENT_FEATURES rf1
  SHAPEFILE = rf1.shp
  FEATURE_TYPE = polygon
  REFINEMENT_LEVEL = 2
END REFINEMENT_FEATURES


BEGIN REFINEMENT_FEATURES rf2
  SHAPEFILE = rf2.shp
  FEATURE_TYPE = polygon
  REFINEMENT_LEVEL = 3
END REFINEMENT_FEATURES




