# File generated by Flopy version 3.10.0.dev1 on 02/06/2025 at 18:50:22.
BEGIN options
END options

BEGIN timing
  TDIS6  ex-gwf-u1gwfgwf-s2.tdis
END timing

BEGIN models
  gwf6  outer.nam  outer
  gwf6  inner.nam  inner
END models

BEGIN exchanges
  GWF6-GWF6  ex-gwf-u1gwfgwf-s2.gwfgwf  outer  inner
END exchanges

BEGIN solutiongroup  1
  ims6  ex-gwf-u1gwfgwf-s2.ims  outer  inner
END solutiongroup  1

