# File generated by Flopy version 3.10.0.dev1 on 02/06/2025 at 18:50:22.
BEGIN options
END options

BEGIN dimensions
  MAXBOUND  7
END dimensions

BEGIN period  1
  1 1 7 0.00000000E+00
  1 2 7 0.00000000E+00
  1 3 7 0.00000000E+00
  1 4 7 0.00000000E+00
  1 5 7 0.00000000E+00
  1 6 7 0.00000000E+00
  1 7 7 0.00000000E+00
END period  1

