# File generated by Flopy version 3.10.0.dev1 on 02/06/2025 at 18:49:46.
BEGIN options
  SAVE_FLOWS
  SAVE_SPECIFIC_DISCHARGE
END options

BEGIN griddata
  icelltype
    CONSTANT  0
  k
    CONSTANT       0.01900000
  k33
    CONSTANT       0.01900000
END griddata

