# File generated by Flopy version 3.10.0.dev1 on 02/06/2025 at 18:49:46.
BEGIN options
END options

BEGIN timing
  TDIS6  ex-gwf-curvilin.tdis
END timing

BEGIN models
  gwf6  ex-gwf-curvilin.nam  ex-gwf-curvilin
END models

BEGIN exchanges
END exchanges

BEGIN solutiongroup  1
  ims6  ex-gwf-curvilin.ims  ex-gwf-curvilin
END solutiongroup  1

