# File generated by Flopy version 3.10.0.dev1 on 02/06/2025 at 18:52:18.
BEGIN options
END options

BEGIN packages
  DIS6  ex-gwf-sfr-psb.dis  dis
  NPF6  ex-gwf-sfr-psb.npf  npf
  STO6  ex-gwf-sfr-psb.sto  sto
  IC6  ex-gwf-sfr-psb.ic  ic
  OC6  ex-gwf-sfr-psb.oc  oc
  SFR6  ex-gwf-sfr-psb.sfr  sfr-1
END packages

