# File generated by Flopy version 3.10.0.dev1 on 02/06/2025 at 18:52:18.
BEGIN options
END options

BEGIN griddata
  iconvert
    CONSTANT  1
  ss
    CONSTANT  1.00000000E-07
  sy
    CONSTANT       0.25000000
END griddata

BEGIN period  1
  TRANSIENT
END period  1

