# File generated by Flopy version 3.10.0.dev1 on 02/06/2025 at 18:52:18.
BEGIN options
END options

BEGIN timing
  TDIS6  ex-gwf-sfr-psb.tdis
END timing

BEGIN models
  gwf6  ex-gwf-sfr-psb.nam  ex-gwf-sfr-psb
END models

BEGIN exchanges
END exchanges

BEGIN solutiongroup  1
  ims6  ex-gwf-sfr-psb.ims  ex-gwf-sfr-psb
END solutiongroup  1

