# File generated by Flopy version 3.10.0.dev1 on 02/06/2025 at 18:49:49.
BEGIN options
  BUDGET  FILEOUT  ex-gwf-disvmesh.cbc
  HEAD  FILEOUT  ex-gwf-disvmesh.hds
END options

BEGIN period  1
  SAVE  HEAD  ALL
  SAVE  BUDGET  ALL
END period  1

