# File generated by Flopy version 3.10.0.dev1 on 02/06/2025 at 18:50:43.
BEGIN options
  TIME_UNITS  days
END options

BEGIN dimensions
  NPER  1
END dimensions

BEGIN perioddata
      27.00000000  27       1.00000000
END perioddata

