# File generated by Flopy version 3.10.0.dev1 on 02/06/2025 at 18:50:52.
BEGIN options
  ZERO_ORDER_DECAY
  SORPTION  linear
END options

BEGIN griddata
  porosity
    CONSTANT       0.25000000
  decay
    CONSTANT  -5.00000000E-04
  decay_sorbed
    CONSTANT  -5.00000000E-04
  bulk_density
    CONSTANT       4.00000000
  distcoef
    CONSTANT       0.25000000
END griddata

